19
33032 glutamate
O          3.22285       -2.08819       -1.25980
O         -2.76616        1.21694       -0.43551
O          1.79853       -1.25405       -2.81388
O         -3.24515       -0.86344        0.34254
N          2.00247        0.48546       -0.11904
C         -0.12380       -0.66490       -0.71460
C          1.38560       -0.79700       -0.45120
C         -0.96090       -0.08320        0.42790
C          2.12556       -1.38218       -1.64101
C         -2.43240        0.02350        0.11516
H         -0.52820       -1.64860       -0.98940
H         -0.26680       -0.03370       -1.60220
H          1.54470       -1.47236        0.39792
H         -0.85529       -0.71061        1.31977
H         -0.60959        0.92654        0.66722
H          2.97057        0.33780        0.16415
H          1.52969        0.89375        0.68639
H          3.69836       -2.46768       -2.02925
H         -3.72618        1.27563       -0.62843
