19
33032 glutamate
O          3.01858       -1.81301        0.96216
O         -1.35561       -2.15407        1.54615
O          0.84564       -2.26860        1.42083
O         -0.49167       -0.44526        2.76939
N          2.10501       -1.31854       -1.61138
C         -0.12380       -0.66490       -0.71460
C          1.38560       -0.79700       -0.45120
C         -0.96090       -0.08320        0.42790
C          1.68349       -1.69928        0.73319
C         -0.89861       -0.88695        1.70251
H         -0.52820       -1.64860       -0.98940
H         -0.26680       -0.03370       -1.60220
H          1.79844        0.19249       -0.22117
H         -0.61776        0.93152        0.65772
H         -2.01384       -0.03682        0.12884
H          3.10904       -1.27791       -1.43965
H          1.93020       -0.72143       -2.41874
H          3.20935       -2.39411        1.72904
H         -1.31532       -2.66389        2.38327
