19
33032 glutamate
O          2.87674       -2.33646        0.59907
O         -3.12171       -1.09574        0.44839
O          0.95882       -1.85465        1.70771
O         -2.95264        1.00711       -0.39553
N          2.10501       -1.31854       -1.61138
C         -0.12380       -0.66490       -0.71460
C          1.38560       -0.79700       -0.45120
C         -0.96090       -0.08320        0.42790
C          1.68349       -1.69928        0.73319
C         -2.43240        0.02350        0.11516
H         -0.52820       -1.64860       -0.98940
H         -0.26680       -0.03370       -1.60220
H          1.79844        0.19249       -0.22117
H         -0.85529       -0.71061        1.31977
H         -0.60959        0.92654        0.66722
H          3.10904       -1.27791       -1.43965
H          1.93020       -0.72143       -2.41874
H          3.06894       -2.91697        1.36603
H         -4.07574       -1.01564        0.23451
