19
33032 glutamate
O          2.02228        0.82708        1.17776
O         -0.64807        2.20255       -0.18225
O          2.52023        1.29855       -0.98312
O         -0.17033        1.60971        1.95856
N          1.67514       -1.70021        0.66053
C         -0.12380       -0.66490       -0.71460
C          1.38560       -0.79700       -0.45120
C         -0.96090       -0.08320        0.42790
C          2.03410        0.54287       -0.15150
C         -0.55491        1.31098        0.83526
H         -0.52820       -1.64860       -0.98940
H         -0.26680       -0.03370       -1.60220
H          1.87246       -1.20379       -1.34558
H         -2.01550       -0.04951        0.13309
H         -0.86632       -0.71748        1.31616
H          2.68085       -1.85379        0.72527
H          1.25938       -2.61255        0.47691
H          2.44375        1.69169        1.37006
H         -0.37568        3.10351        0.09411
