19
33032 glutamate
O          1.20646       -2.95826        0.54547
O         -2.68571        0.82798       -0.94671
O          2.28072       -1.36491        1.74832
O         -3.30947       -0.54294        0.75455
N          2.10501       -1.31854       -1.61138
C         -0.12380       -0.66490       -0.71460
C          1.38560       -0.79700       -0.45120
C         -0.96090       -0.08320        0.42790
C          1.68349       -1.69928        0.73319
C         -2.43240        0.02350        0.11516
H         -0.52820       -1.64860       -0.98940
H         -0.26680       -0.03370       -1.60220
H          1.79844        0.19249       -0.22117
H         -0.85529       -0.71061        1.31977
H         -0.60959        0.92654        0.66722
H          3.10904       -1.27791       -1.43965
H          1.93020       -0.72143       -2.41874
H          1.40184       -3.54059        1.31026
H         -3.64608        0.89353       -1.13570
