19
33032 glutamate
O          3.36795        0.42118        0.08061
O         -1.63722       -0.34359        2.70157
O          1.45448        1.62076       -0.11752
O         -0.24407       -1.91354        1.83142
N          1.67514       -1.70021        0.66053
C         -0.12380       -0.66490       -0.71460
C          1.38560       -0.79700       -0.45120
C         -0.96090       -0.08320        0.42790
C          2.03410        0.54287       -0.15150
C         -0.89861       -0.88695        1.70251
H         -0.52820       -1.64860       -0.98940
H         -0.26680       -0.03370       -1.60220
H          1.87246       -1.20379       -1.34558
H         -0.61776        0.93152        0.65772
H         -2.01384       -0.03682        0.12884
H          2.68085       -1.85379        0.72527
H          1.25938       -2.61255        0.47691
H          3.78592        1.28779        0.27156
H         -1.58338       -0.87233        3.52610
