27
6305 tryptophan
O          3.40833       -0.81470       -2.85415
O          3.64074        1.35623       -3.46962
N         -1.64740        2.00440        0.54820
N          0.84645       -0.63983       -2.73883
C          0.14750        1.13230       -0.42360
C          1.50650        0.98450       -0.98300
C         -0.86670        0.13490       -0.38590
C          1.53317        0.62586       -2.49101
C         -1.98230        0.70780        0.22860
C         -0.36250        2.27020        0.15790
C         -0.94310       -1.20450       -0.81690
C         -3.17510        0.00550        0.43460
C          2.95361        0.45682       -3.00228
C         -2.12980       -1.91930       -0.61760
C         -3.22740       -1.32160       -0.00120
H          2.06798        1.91440       -0.81821
H          2.04460        0.20785       -0.42231
H          1.03855        1.40832       -3.07899
H          0.07230        3.24490        0.33040
H         -2.26200        2.66390        1.00510
H         -0.10010       -1.68640       -1.30350
H         -4.03010        0.46990        0.91430
H         -2.19480       -2.95220       -0.94900
H          0.78819       -0.80810       -3.74264
H         -0.11493       -0.57766       -2.40562
H         -4.13930       -1.89530        0.14340
H          4.32925       -0.91337       -3.17721
