27
6305 tryptophan
O          0.05160        1.54908       -3.08139
O          0.63170       -0.21499       -4.38420
N         -1.64740        2.00440        0.54820
N          2.96979       -0.11719       -2.65695
C          0.14750        1.13230       -0.42360
C          1.50650        0.98450       -0.98300
C         -0.86670        0.13490       -0.38590
C          1.59991       -0.02325       -2.15737
C         -1.98230        0.70780        0.22860
C         -0.36250        2.27020        0.15790
C         -0.94310       -1.20450       -0.81690
C         -3.17510        0.00550        0.43460
C          0.73719        0.40351       -3.33261
C         -2.12980       -1.91930       -0.61760
C         -3.22740       -1.32160       -0.00120
H          1.86943        1.96711       -1.31450
H          2.19207        0.66691       -0.18535
H          1.28173       -1.02083       -1.83148
H          0.07230        3.24490        0.33040
H         -2.26200        2.66390        1.00510
H         -0.10010       -1.68640       -1.30350
H         -4.03010        0.46990        0.91430
H         -2.19480       -2.95220       -0.94900
H          3.02954       -0.85410       -3.35889
H          3.59130       -0.39681       -1.89888
H         -4.13930       -1.89530        0.14340
H         -0.51055        1.81250       -3.84086
