27
6305 tryptophan
O          3.50040        2.57747       -3.73307
O          4.01031        0.90419       -2.28881
N         -1.64740        2.00440        0.54820
N          0.89718        1.77688       -3.25411
C          0.14750        1.13230       -0.42360
C          1.50650        0.98450       -0.98300
C         -0.86670        0.13490       -0.38590
C          1.82343        1.96644       -2.14005
C         -1.98230        0.70780        0.22860
C         -0.36250        2.27020        0.15790
C         -0.94310       -1.20450       -0.81690
C         -3.17510        0.00550        0.43460
C          3.22061        1.74750       -2.69465
C         -2.12980       -1.91930       -0.61760
C         -3.22740       -1.32160       -0.00120
H          2.24410        1.11592       -0.17938
H          1.63806       -0.04512       -1.34313
H          1.74078        3.00395       -1.79460
H          0.07230        3.24490        0.33040
H         -2.26200        2.66390        1.00510
H         -0.10010       -1.68640       -1.30350
H         -4.03010        0.46990        0.91430
H         -2.19480       -2.95220       -0.94900
H          1.05783        2.49451       -3.96017
H         -0.05984        1.90866       -2.92870
H         -4.13930       -1.89530        0.14340
H          4.40016        2.42317       -4.09198
