27
6305 tryptophan
O          0.30698        3.25743       -1.86024
O          1.70445        3.50182       -3.63029
N         -1.64740        2.00440        0.54820
N          2.98361        1.18294       -2.96689
C          0.14750        1.13230       -0.42360
C          1.50650        0.98450       -0.98300
C         -0.86670        0.13490       -0.38590
C          1.61498        1.35414       -2.48467
C         -1.98230        0.70780        0.22860
C         -0.36250        2.27020        0.15790
C         -0.94310       -1.20450       -0.81690
C         -3.17510        0.00550        0.43460
C          1.24539        2.80652       -2.73289
C         -2.12980       -1.91930       -0.61760
C         -3.22740       -1.32160       -0.00120
H          2.20512        1.60284       -0.40273
H          1.84182       -0.05277       -0.84608
H          0.95492        0.71587       -3.08428
H          0.07230        3.24490        0.33040
H         -2.26200        2.66390        1.00510
H         -0.10010       -1.68640       -1.30350
H         -4.03010        0.46990        0.91430
H         -2.19480       -2.95220       -0.94900
H          3.01413        1.33446       -3.97458
H          3.28082        0.21960       -2.81601
H         -4.13930       -1.89530        0.14340
H          0.06643        4.19252       -2.03327
