13
test.xyz
O          1.59136        0.72105       -0.49945
O          1.10290       -1.04268        0.75116
N         -1.44869       -1.05633       -0.56596
C         -0.66976        0.13908       -0.42725
C         -1.09794        1.20910        0.65369
C          0.77454       -0.18344       -0.03133
H         -0.61977        0.70651       -1.33758
H         -0.49829        2.06501        0.59213
H         -2.12413        1.50717        0.57141
H         -1.04674        0.78036        1.68000
H         -2.46345       -0.91647       -0.74146
H         -1.35512       -1.72561        0.26110
H          2.48168        0.61552       -0.03644
13
test.xyz
O          0.80652       -0.82073        1.10766
O          1.73752       -0.03790       -0.74540
N         -1.44869       -1.05633       -0.56596
C         -0.66976        0.13908       -0.42725
C         -1.09794        1.20910        0.65369
C          0.77454       -0.18344       -0.03133
H         -0.61977        0.70651       -1.33758
H         -0.49829        2.06501        0.59213
H         -2.12413        1.50717        0.57141
H         -1.04674        0.78036        1.68000
H         -2.46345       -0.91647       -0.74146
H         -1.35512       -1.72561        0.26110
H          1.72674       -1.21806        1.22389
13
test.xyz
O          0.94173       -1.47319        0.08293
O          1.68019        0.61498       -0.00443
N         -1.44869       -1.05633       -0.56596
C         -0.66976        0.13908       -0.42725
C         -1.09794        1.20910        0.65369
C          0.77454       -0.18344       -0.03133
H         -0.61977        0.70651       -1.33758
H         -0.49829        2.06501        0.59213
H         -2.12413        1.50717        0.57141
H         -1.04674        0.78036        1.68000
H         -2.46345       -0.91647       -0.74146
H         -1.35512       -1.72561        0.26110
H          1.93215       -1.66409        0.11121
13
test.xyz
O          1.34221       -0.93247       -0.93751
O          1.37030        0.32359        0.88866
N         -1.44869       -1.05633       -0.56596
C         -0.66976        0.13908       -0.42725
C         -1.09794        1.20910        0.65369
C          0.77454       -0.18344       -0.03133
H         -0.61977        0.70651       -1.33758
H         -0.49829        2.06501        0.59213
H         -2.12413        1.50717        0.57141
H         -1.04674        0.78036        1.68000
H         -2.46345       -0.91647       -0.74146
H         -1.35512       -1.72561        0.26110
H          2.33756       -0.93263       -0.77185
13
test.xyz
O          1.28209        0.78557        0.68133
O          1.31491       -1.25138       -0.19226
N         -1.44869       -1.05633       -0.56596
C         -0.66976        0.13908       -0.42725
C         -1.09794        1.20910        0.65369
C          0.77454       -0.18344       -0.03133
H         -0.61977        0.70651       -1.33758
H         -0.49829        2.06501        0.59213
H         -2.12413        1.50717        0.57141
H         -1.04674        0.78036        1.68000
H         -2.46345       -0.91647       -0.74146
H         -1.35512       -1.72561        0.26110
H          2.12902        0.45073        1.11580
