13

 O       1.598458325724       0.682164217243      -0.557010723391
 O       1.100153521887      -1.004232648429       0.792490842343
 N      -1.448692563788      -1.056325254111      -0.565960506762
 C      -0.669760563199       0.139081292498      -0.427247536299
 C      -1.097938162357       1.209101857009       0.653689408571
 C       0.774539790827      -0.183440782221      -0.031327752357
 H      -0.619771673755       0.706513955448      -1.337583153347
 H      -0.498293122675       2.065005857093       0.592134903795
 H      -2.124132878474       1.507173109094       0.571412490359
 H      -1.046736541706       0.780361313131       1.679998258458
 H      -2.463451869103      -0.916465316090      -0.741464891751
 H      -1.355115478605      -1.725610474159       0.261102680817
 H       2.492841140917       0.588255054766      -0.099362731263
