24
6057 tyrosine
O         -3.13631        0.49620       -1.99125
O          4.21830       -0.63510       -0.39470
O         -1.03240       -0.35166       -1.99700
N         -1.93240       -1.26198        0.61225
C         -1.04930        1.02100        0.76330
C         -2.11402        0.10751        0.13646
C          0.36180        0.57740        0.45290
C          0.78030       -0.67980        0.85530
C          1.20770        1.43730       -0.22760
C         -2.00564        0.05932       -1.37797
C          2.08270       -1.08910        0.56900
C          2.51010        1.02800       -0.51410
C          2.94760       -0.23530       -0.11580
H         -1.18170        1.08322        1.85232
H         -1.16529        2.05078        0.39703
H         -3.12956        0.41878        0.40738
H          0.11580       -1.35120        1.39140
H          0.87520        2.42170       -0.54400
H         -2.04320       -1.28862        1.62539
H         -0.97687       -1.56818        0.42964
H          2.41140       -2.07540        0.88530
H          3.17900        1.69730       -1.04820
H         -3.06341        0.45010       -2.96837
H          4.34940       -1.53390       -0.04670
