24
6057 tyrosine
O         -0.45870        0.90403       -2.11666
O          4.21830       -0.63510       -0.39470
O         -2.38380        2.09207       -2.28368
N         -2.04179       -0.79007       -0.55945
C         -1.04930        1.02100        0.76330
C         -2.04789        0.65533       -0.34582
C          0.36180        0.57740        0.45290
C          0.78030       -0.67980        0.85530
C          1.20770        1.43730       -0.22760
C         -1.68340        1.29267       -1.67567
C          2.08270       -1.08910        0.56900
C          2.51010        1.02800       -0.51410
C          2.94760       -0.23530       -0.11580
H         -1.36311        0.59448        1.72609
H         -1.03220        2.10890        0.91902
H         -3.07216        0.94578       -0.08478
H          0.11580       -1.35120        1.39140
H          0.87520        2.42170       -0.54400
H         -2.32715       -1.26278        0.29762
H         -1.09140       -1.10821       -0.74836
H          2.41140       -2.07540        0.88530
H          3.17900        1.69730       -1.04820
H         -0.22512        1.32940       -2.96913
H          4.34940       -1.53390       -0.04670
