24
6057 tyrosine
O         -2.05960        3.53731       -1.44260
O          4.21830       -0.63510       -0.39470
O         -0.12330        2.41888       -1.82363
N         -1.91611        0.17682       -1.36993
C         -1.04930        1.02100        0.76330
C         -1.86360        1.34810       -0.49804
C          0.36180        0.57740        0.45290
C          0.78030       -0.67980        0.85530
C          1.20770        1.43730       -0.22760
C         -1.23400        2.46666       -1.31045
C          2.08270       -1.08910        0.56900
C          2.51010        1.02800       -0.51410
C          2.94760       -0.23530       -0.11580
H         -1.55188        0.24877        1.36200
H         -0.98757        1.90188        1.41775
H         -2.89610        1.62602       -0.25657
H          0.11580       -1.35120        1.39140
H          0.87520        2.42170       -0.54400
H         -2.37555       -0.59141       -0.88187
H         -0.97047       -0.14819       -1.57062
H          2.41140       -2.07540        0.88530
H          3.17900        1.69730       -1.04820
H         -1.65122        4.24993       -1.97889
H          4.34940       -1.53390       -0.04670
