16
5960 aspartic
O          2.49331       -0.37175       -0.70772
O         -1.34971        2.45286       -1.84346
O          0.69965       -1.67537       -0.22938
O          0.32350        0.98682       -2.32113
N          1.74450        1.67880        0.40550
C          0.72720        0.63750        0.54990
C         -0.59570        1.11590       -0.06130
C          1.27480       -0.59800       -0.14700
C         -0.46054        1.47745       -1.52295
H          0.60510        0.41580        1.61660
H         -0.94302        2.00592        0.47985
H         -1.36737        0.34199        0.02086
H          2.59320        1.39920        0.89650
H          1.42470        2.53410        0.85860
H          2.83815       -1.16819       -1.16489
H         -1.28460        2.71104       -2.78757
