16
5960 aspartic
O          2.07511       -0.27953       -1.19982
O         -0.12038        3.09204        1.12236
O          1.02420       -1.75453        0.16597
O         -2.31963        2.64871        0.74305
N          1.74450        1.67880        0.40550
C          0.72720        0.63750        0.54990
C         -0.59570        1.11590       -0.06130
C          1.27480       -0.59800       -0.14700
C         -1.14187        2.34428        0.63022
H          0.60510        0.41580        1.61660
H         -1.34309        0.31596        0.02301
H         -0.47141        1.35832       -1.12288
H          2.59320        1.39920        0.89650
H          1.42470        2.53410        0.85860
H          2.41785       -1.07934       -1.65266
H         -0.44388        3.89925        1.57623
