16
5960 aspartic
O          1.49188       -0.38411       -1.47270
O         -1.63474        1.25127       -2.16704
O          1.48402       -1.67751        0.39075
O          0.54000        1.91346       -2.07189
N          1.74450        1.67880        0.40550
C          0.72720        0.63750        0.54990
C         -0.59570        1.11590       -0.06130
C          1.27480       -0.59800       -0.14700
C         -0.46054        1.47745       -1.52295
H          0.60510        0.41580        1.61660
H         -0.94302        2.00592        0.47985
H         -1.36737        0.34199        0.02086
H          2.59320        1.39920        0.89650
H          1.42470        2.53410        0.85860
H          1.83534       -1.18655       -1.92033
H         -1.57899        1.47901       -3.11955
