16
5960 aspartic
O          0.42506       -1.65628       -0.05560
O         -0.79182        2.78122       -1.71065
O          2.35849       -0.66801       -0.71181
O         -0.10549        0.73242       -2.42372
N          1.74450        1.67880        0.40550
C          0.72720        0.63750        0.54990
C         -0.59570        1.11590       -0.06130
C          1.27480       -0.59800       -0.14700
C         -0.46054        1.47745       -1.52295
H          0.60510        0.41580        1.61660
H         -0.94302        2.00592        0.47985
H         -1.36737        0.34199        0.02086
H          2.59320        1.39920        0.89650
H          1.42470        2.53410        0.85860
H          0.78673       -2.45385       -0.49755
H         -0.71177        3.04694       -2.65151
