14
5951 serine
O          2.55601       -1.16128        0.10169
O         -1.71860        0.61205        1.02595
O         -1.06570        0.71278       -1.14805
N         -0.17830       -1.96140        0.31450
C          0.24990       -0.57190        0.46740
C          1.50430       -0.32290       -0.36530
C         -0.89000        0.30870       -0.00750
H          0.43510       -0.37070        1.52850
H          1.33417       -0.54060       -1.42524
H          1.84841        0.71348       -0.27787
H         -0.38310       -2.16140       -0.66380
H         -1.04210       -2.11820        0.83210
H          2.26069       -2.08260        0.00375
H         -2.46244        1.18508        0.74186
