16
5960 aspartic
O          0.87650       -1.74770        0.46120
O         -2.54680        0.20850       -1.01100
O          2.00790       -0.58910       -1.12720
O         -1.80210       -0.77920        0.89870
N          1.74450        1.67880        0.40550
C          0.72720        0.63750        0.54990
C         -0.59570        1.11590       -0.06130
C          1.27480       -0.59800       -0.14700
C         -1.68640        0.07320        0.03120
H          0.60510        0.41580        1.61660
H         -0.43910        1.35300       -1.12190
H         -0.95530        2.02030        0.44260
H          2.59320        1.39920        0.89650
H          1.42470        2.53410        0.85860
H          1.24030       -2.54170        0.01460
H         -3.26650       -0.45730       -0.97970
