22
6306 isoleucine
O          1.42332       -1.35807        1.87167
O         -0.11534       -2.76736        0.98401
N          0.99611       -1.60657       -1.43756
C         -0.84990       -0.19660       -0.51130
C          0.55990       -0.80120       -0.29320
C         -1.32840        0.71620        0.64250
C         -1.89090       -1.29490       -0.77940
C         -1.55686        0.01202        1.97335
C          0.55961       -1.74879        0.89855
H         -0.80620        0.42400       -1.41710
H          1.30065       -0.01504       -0.11051
H         -2.27084        1.19655        0.35411
H         -0.60666        1.52278        0.81517
H         -1.52420       -1.99570       -1.53740
H         -2.11860       -1.86500        0.12730
H         -2.82570       -0.87380       -1.16250
H         -2.22569       -0.84601        1.85311
H         -2.01704        0.70234        2.68797
H         -0.61742       -0.33492        2.41305
H          0.39070       -2.41707       -1.55744
H          1.93231       -1.97140       -1.26511
H          1.42424       -1.97960        2.63051
