22
6306 isoleucine
O          1.67295        1.17785       -1.05919
O          2.27012        0.38538        0.97965
N          0.60769       -1.67542        0.88235
C         -0.84990       -0.19660       -0.51130
C          0.55990       -0.80120       -0.29320
C         -1.32840        0.71620        0.64250
C         -1.89090       -1.29490       -0.77940
C         -0.37984        1.85047        1.00705
C          1.58054        0.29726       -0.02884
H         -0.80620        0.42400       -1.41710
H          0.88343       -1.37063       -1.17139
H         -1.48173        0.10853        1.54213
H         -2.29896        1.16291        0.39805
H         -1.52420       -1.99570       -1.53740
H         -2.11860       -1.86500        0.12730
H         -2.82570       -0.87380       -1.16250
H          0.62783        1.47096        1.20350
H         -0.73272        2.35763        1.91105
H         -0.32316        2.60038        0.21289
H          0.42785       -1.14365        1.73245
H          1.54347       -2.06739        0.98228
H          2.33991        1.87563       -0.88479
