17
6267 aspargine
O          0.24511       -1.47732       -0.36201
O          2.39597       -0.99907        0.17061
O         -1.11630        3.33439       -1.02399
N          1.78050        1.68340        0.08540
N         -1.43464        2.61737        1.13830
C          0.69900        0.74360        0.39060
C         -0.51740        1.06660       -0.47970
C          1.22750       -0.64570        0.07400
C         -1.05369        2.45025       -0.17297
H          0.48220        0.81270        1.46110
H         -0.25659        1.02782       -1.54439
H         -1.32836        0.34718       -0.30918
H          2.03560        1.61930       -0.89940
H          2.61350        1.44030        0.62000
H         -1.33657        1.88675        1.83557
H         -1.80786        3.50369        1.46181
H          0.59050       -2.37018       -0.57612
