17
6267 aspargine
O          0.62973       -1.60290        0.83112
O          2.07530       -0.90666       -0.77020
O          0.71867        0.28563       -2.39282
N          1.78050        1.68340        0.08540
N         -0.89289        1.89300       -2.72474
C          0.69900        0.74360        0.39060
C         -0.51740        1.06660       -0.47970
C          1.22750       -0.64570        0.07400
C         -0.16025        1.02233       -1.95166
H          0.48220        0.81270        1.46110
H         -1.32664        0.34804       -0.30110
H         -0.90710        2.06848       -0.25912
H          2.03560        1.61930       -0.89940
H          2.61350        1.44030        0.62000
H         -1.58623        2.52289       -2.33469
H         -0.74026        1.95301       -3.72606
H          0.96457       -2.49985        0.61735
