17
6267 aspargine
O          2.56420       -0.74547        0.29776
O          0.55231       -1.58904       -0.31812
O         -2.49906        0.24536        0.61409
N          1.78050        1.68340        0.08540
N         -1.57113       -1.03635       -1.05538
C          0.69900        0.74360        0.39060
C         -0.51740        1.06660       -0.47970
C          1.22750       -0.64570        0.07400
C         -1.63547        0.07168       -0.24260
H          0.48220        0.81270        1.46110
H         -0.89917        2.07094       -0.25914
H         -0.26072        1.03480       -1.54619
H          2.03560        1.61930       -0.89940
H          2.61350        1.44030        0.62000
H         -0.82594       -1.18029       -1.72887
H         -2.26613       -1.77235       -0.98614
H          2.90104       -1.64603        0.10317
