20
6274 histidine
O         -3.53039        0.91763        0.78775
O         -3.22790        2.27264       -1.00606
N          2.12847        1.27712        0.17863
N         -1.21002        0.66083       -1.88735
N          2.61794       -0.84852       -0.23869
C         -0.35790        1.30040        0.32170
C         -1.50620        0.63970       -0.45670
C          0.96710        0.60200        0.11950
C         -2.82026        1.37964       -0.27408
C          1.25891       -0.68917       -0.13420
C          3.11203        0.35430       -0.04582
H         -0.59420        1.31960        1.39460
H         -0.24330        2.34500        0.00390
H         -1.64734       -0.40417       -0.15375
H          2.26201        2.26485        0.35300
H          0.58675       -1.52656       -0.25098
H         -0.34487        0.15063       -2.06285
H         -1.03312        1.61795       -2.19153
H          4.15909        0.62168       -0.05475
H         -4.38314        1.39122        0.89124
