20
6274 histidine
O         -3.53039        0.91763        0.78775
O         -3.22790        2.27264       -1.00606
N          1.03006       -0.71845       -0.12647
N         -1.21002        0.66083       -1.88735
N          3.11310        0.05123       -0.10173
C         -0.35790        1.30040        0.32170
C         -1.50620        0.63970       -0.45670
C          0.96710        0.60200        0.11950
C         -2.82026        1.37964       -0.27408
C          2.22948        1.07397        0.13602
C          2.35870       -1.01439       -0.25487
H         -0.59420        1.31960        1.39460
H         -0.24330        2.34500        0.00390
H         -1.64734       -0.40417       -0.15375
H          0.26060       -1.37100       -0.20379
H          2.57430        2.08389        0.30276
H         -0.34487        0.15063       -2.06285
H         -1.03312        1.61795       -2.19153
H          2.70658       -2.01703       -0.45881
H         -4.38314        1.39122        0.89124
