20
6274 histidine
O         -2.22366       -1.57204       -1.01949
O         -1.56658       -1.21420        1.12189
N          1.35921       -0.39901        0.92714
N         -2.75043        1.36616       -0.21362
N          2.96459       -0.09303       -0.57660
C         -0.35790        1.30040        0.32170
C         -1.50620        0.63970       -0.45670
C          0.96710        0.60200        0.11950
C         -1.74625       -0.79346       -0.01395
C          1.93877        0.79199       -0.79505
C          2.58449       -0.79522        0.46770
H         -0.59420        1.31960        1.39460
H         -0.24330        2.34500        0.00390
H         -1.31421        0.64510       -1.53581
H          0.86017       -0.78935        1.71610
H          1.97906        1.50662       -1.60395
H         -2.64534        2.33256       -0.52120
H         -2.93525        1.41339        0.78813
H          3.14172       -1.59488        0.93453
H         -2.38849       -2.49229       -0.72261
