20
6274 histidine
O         -2.37341        0.65195       -2.68629
O         -0.12258        0.49104       -2.45571
N          2.08638        1.03983        0.72246
N         -1.66640       -0.74554       -0.02038
N          2.63684       -0.74167       -0.48391
C         -0.35790        1.30040        0.32170
C         -1.50620        0.63970       -0.45670
C          0.96710        0.60200        0.11950
C         -1.23301        0.59592       -1.95037
C          1.29617       -0.47938       -0.61465
C          3.08319        0.19160        0.32718
H         -0.59420        1.31960        1.39460
H         -0.24330        2.34500        0.00390
H         -2.45576        1.16108       -0.28974
H          2.18523        1.83233        1.34378
H          0.66311       -1.09687       -1.23480
H         -1.87828       -0.76541        0.97676
H         -0.78488       -1.24725       -0.12577
H          4.10336        0.30778        0.66431
H         -2.18977        0.60997       -3.64893
