20
6274 histidine
O         -0.65233       -1.57917       -0.19067
O         -2.80576       -1.22164        0.42596
N          2.08638        1.03983        0.72246
N         -2.75043        1.36616       -0.21362
N          2.63684       -0.74167       -0.48391
C         -0.35790        1.30040        0.32170
C         -1.50620        0.63970       -0.45670
C          0.96710        0.60200        0.11950
C         -1.74625       -0.79346       -0.01395
C          1.29617       -0.47938       -0.61465
C          3.08319        0.19160        0.32718
H         -0.59420        1.31960        1.39460
H         -0.24330        2.34500        0.00390
H         -1.31421        0.64510       -1.53581
H          2.18523        1.83233        1.34378
H          0.66311       -1.09687       -1.23480
H         -2.64534        2.33256       -0.52120
H         -2.93525        1.41339        0.78813
H          4.10336        0.30778        0.66431
H         -0.81919       -2.50560        0.08510
