20
6274 histidine
O         -1.82281       -0.46922       -2.55272
O         -0.53819        1.40027       -2.55837
N          1.51627        0.48655       -1.10244
N         -1.66640       -0.74554       -0.02038
N          2.89406       -0.49180        0.33859
C         -0.35790        1.30040        0.32170
C         -1.50620        0.63970       -0.45670
C          0.96710        0.60200        0.11950
C         -1.23301        0.59592       -1.95037
C          1.79970        0.00903        0.99802
C          2.69211       -0.18801       -0.92435
H         -0.59420        1.31960        1.39460
H         -0.24330        2.34500        0.00390
H         -2.45576        1.16108       -0.28974
H          1.14674        0.82487       -1.98156
H          1.69410       -0.09701        2.06772
H         -1.87828       -0.76541        0.97676
H         -0.78488       -1.24725       -0.12577
H          3.34968       -0.42340       -1.74903
H         -1.63107       -0.49790       -3.51427
