20
5961 glutamine
O         -3.13523       -0.20291       -0.86433
O         -1.79522        1.55722       -0.37295
O          0.22170        0.58227       -2.53939
N         -1.48140       -1.94169        0.07309
N          0.49865        2.16719       -0.89617
C          0.13380       -0.23550        0.87580
C         -1.34240       -0.60860        0.65900
C          1.00320       -0.14580       -0.38390
C         -2.08694        0.37769       -0.22256
C          0.52950        0.88284       -1.38841
H          0.19040        0.72360        1.40710
H          0.57830       -0.97640        1.55450
H         -1.85227       -0.62009        1.62966
H          2.03217        0.12186       -0.11829
H          1.03255       -1.12074       -0.88454
H         -1.11875       -1.94883       -0.87912
H         -2.46879       -2.18546        0.00318
H          0.76443        2.38758        0.05833
H          0.20345        2.94350       -1.47893
H         -3.61051        0.43485       -1.43855
