20
5961 glutamine
O         -1.48639       -1.87556       -1.35927
O         -1.71119       -3.02085        0.58312
O          0.22170        0.58227       -2.53939
N         -2.08916       -0.60840        1.91681
N          0.49865        2.16719       -0.89617
C          0.13380       -0.23550        0.87580
C         -1.34240       -0.60860        0.65900
C          1.00320       -0.14580       -0.38390
C         -1.52784       -1.96184       -0.00328
C          0.52950        0.88284       -1.38841
H          0.19040        0.72360        1.40710
H          0.57830       -0.97640        1.55450
H         -1.80441        0.13693        0.00096
H          2.03217        0.12186       -0.11829
H          1.03255       -1.12074       -0.88454
H         -1.76590       -1.36343        2.51990
H         -3.07436       -0.79406        1.73198
H          0.76443        2.38758        0.05833
H          0.20345        2.94350       -1.47893
H         -1.61328       -2.75024       -1.78493
