20
5961 glutamine
O         -2.12353       -1.85612       -1.22060
O         -1.20586       -3.03966        0.48006
O          0.51015       -2.46139       -0.81039
N         -2.08916       -0.60840        1.91681
N          1.86631       -1.35117       -2.29937
C          0.13380       -0.23550        0.87580
C         -1.34240       -0.60860        0.65900
C          1.00320       -0.14580       -0.38390
C         -1.52784       -1.96184       -0.00328
C          1.08373       -1.43633       -1.17104
H          0.19040        0.72360        1.40710
H          0.57830       -0.97640        1.55450
H         -1.80441        0.13693        0.00096
H          0.60879        0.61638       -1.06545
H          2.02310        0.14925       -0.11047
H         -1.76590       -1.36343        2.51990
H         -3.07436       -0.79406        1.73198
H          2.33376       -0.49189       -2.57032
H          2.00041       -2.15445       -2.90448
H         -2.24839       -2.73246       -1.64344
