20
5961 glutamine
O         -3.46056       -0.43257        1.74609
O         -1.67593       -0.90889        3.05885
O         -0.25533        0.60429       -2.29188
N         -2.00986        0.33173       -0.24101
N          1.07286        2.13296       -1.20199
C          0.13380       -0.23550        0.87580
C         -1.34240       -0.60860        0.65900
C          1.00320       -0.14580       -0.38390
C         -2.13907       -0.67805        1.94925
C          0.52950        0.88284       -1.38841
H          0.19040        0.72360        1.40710
H          0.57830       -0.97640        1.55450
H         -1.39375       -1.60126        0.19610
H          2.03217        0.12186       -0.11829
H          1.03255       -1.12074       -0.88454
H         -2.08496        1.24827        0.19782
H         -2.96492        0.02121       -0.41624
H          1.72422        2.33339       -0.44976
H          0.83459        2.90367       -1.81733
H         -3.97200       -0.47132        2.58232
