20
5961 glutamine
O         -2.05217       -1.90087        2.53666
O         -2.80412        0.23383        2.42377
O          1.54227       -2.47009       -0.69052
N         -2.00986        0.33173       -0.24101
N          0.61842       -1.33021       -2.46140
C          0.13380       -0.23550        0.87580
C         -1.34240       -0.60860        0.65900
C          1.00320       -0.14580       -0.38390
C         -2.13907       -0.67805        1.94925
C          1.08373       -1.43633       -1.17104
H          0.19040        0.72360        1.40710
H          0.57830       -0.97640        1.55450
H         -1.39375       -1.60126        0.19610
H          0.60879        0.61638       -1.06545
H          2.02310        0.14925       -0.11047
H         -2.08496        1.24827        0.19782
H         -2.96492        0.02121       -0.41624
H          0.25007       -0.46096       -2.83422
H          0.62722       -2.12842       -3.08766
H         -2.57331       -1.94523        3.36660
