20
5961 glutamine
O         -3.10620       -1.63207        1.90033
O         -1.96802        0.03551        2.92934
O         -0.07767        1.89678       -1.05212
N         -2.00986        0.33173       -0.24101
N          0.82509        0.56251       -2.69333
C          0.13380       -0.23550        0.87580
C         -1.34240       -0.60860        0.65900
C          1.00320       -0.14580       -0.38390
C         -2.13907       -0.67805        1.94925
C          0.52950        0.88284       -1.38841
H          0.19040        0.72360        1.40710
H          0.57830       -0.97640        1.55450
H         -1.39375       -1.60126        0.19610
H          2.03217        0.12186       -0.11829
H          1.03255       -1.12074       -0.88454
H         -2.08496        1.24827        0.19782
H         -2.96492        0.02121       -0.41624
H          1.32330       -0.28589       -2.94291
H          0.55254        1.17333       -3.45623
H         -3.62395       -1.67028        2.73268
