20
5961 glutamine
O         -3.40536        0.06625       -0.33505
O         -1.58736        1.33946       -0.79213
O          2.96841        1.22499       -0.59794
N         -1.48140       -1.94169        0.07309
N          3.10502       -0.66802        0.70077
C          0.13380       -0.23550        0.87580
C         -1.34240       -0.60860        0.65900
C          1.00320       -0.14580       -0.38390
C         -2.08694        0.37769       -0.22256
C          2.44577        0.22436       -0.11276
H          0.19040        0.72360        1.40710
H          0.57830       -0.97640        1.55450
H         -1.85227       -0.62009        1.62966
H          1.01661       -1.10879       -0.90683
H          0.58496        0.59919       -1.07098
H         -1.11875       -1.94883       -0.87912
H         -2.46879       -2.18546        0.00318
H          2.64944       -1.49053        1.08315
H          4.07897       -0.52864        0.94857
H         -3.88278        0.70114       -0.91067
