20
5961 glutamine
O         -2.12353       -1.85612       -1.22060
O         -1.20586       -3.03966        0.48006
O          1.22562        1.83663       -1.72831
N         -2.08916       -0.60840        1.91681
N         -0.74368        0.65600       -1.85781
C          0.13380       -0.23550        0.87580
C         -1.34240       -0.60860        0.65900
C          1.00320       -0.14580       -0.38390
C         -1.52784       -1.96184       -0.00328
C          0.52950        0.88284       -1.38841
H          0.19040        0.72360        1.40710
H          0.57830       -0.97640        1.55450
H         -1.80441        0.13693        0.00096
H          2.03217        0.12186       -0.11829
H          1.03255       -1.12074       -0.88454
H         -1.76590       -1.36343        2.51990
H         -3.07436       -0.79406        1.73198
H         -1.29889       -0.13784       -1.55476
H         -1.17175        1.28213       -2.53170
H         -2.24839       -2.73246       -1.64344
