20
5961 glutamine
O         -0.56248       -2.84558        0.36407
O         -2.41925       -2.25129       -0.79106
O          0.27814       -1.71637       -2.05559
N         -2.08916       -0.60840        1.91681
N          2.11950       -2.25701       -0.78833
C          0.13380       -0.23550        0.87580
C         -1.34240       -0.60860        0.65900
C          1.00320       -0.14580       -0.38390
C         -1.52784       -1.96184       -0.00328
C          1.08373       -1.43633       -1.17104
H          0.19040        0.72360        1.40710
H          0.57830       -0.97640        1.55450
H         -1.80441        0.13693        0.00096
H          0.60879        0.61638       -1.06545
H          2.02310        0.14925       -0.11047
H         -1.76590       -1.36343        2.51990
H         -3.07436       -0.79406        1.73198
H          2.76714       -2.00247       -0.04939
H          2.27122       -3.15269       -1.24016
H         -0.68066       -3.71709       -0.07050
