20
5961 glutamine
O         -0.56248       -2.84558        0.36407
O         -2.41925       -2.25129       -0.79106
O          3.30831       -0.62095        0.11373
N         -2.08916       -0.60840        1.91681
N          2.68371        1.57935       -0.12576
C          0.13380       -0.23550        0.87580
C         -1.34240       -0.60860        0.65900
C          1.00320       -0.14580       -0.38390
C         -1.52784       -1.96184       -0.00328
C          2.44577        0.22436       -0.11276
H          0.19040        0.72360        1.40710
H          0.57830       -0.97640        1.55450
H         -1.80441        0.13693        0.00096
H          1.01661       -1.10879       -0.90683
H          0.58496        0.59919       -1.07098
H         -1.76590       -1.36343        2.51990
H         -3.07436       -0.79406        1.73198
H          1.94996        2.25603       -0.31014
H          3.61240        1.94879        0.04874
H         -0.68066       -3.71709       -0.07050
