20
5961 glutamine
O         -1.69381       -2.95676        0.90802
O         -1.51812       -2.16986       -1.20977
O         -0.65728        1.17258       -1.52040
N         -2.08916       -0.60840        1.91681
N          1.54235        1.43499       -2.13813
C          0.13380       -0.23550        0.87580
C         -1.34240       -0.60860        0.65900
C          1.00320       -0.14580       -0.38390
C         -1.52784       -1.96184       -0.00328
C          0.52950        0.88284       -1.38841
H          0.19040        0.72360        1.40710
H          0.57830       -0.97640        1.55450
H         -1.80441        0.13693        0.00096
H          2.03217        0.12186       -0.11829
H          1.03255       -1.12074       -0.88454
H         -1.76590       -1.36343        2.51990
H         -3.07436       -0.79406        1.73198
H          2.51456        1.17217       -2.01159
H          1.34651        2.13252       -2.84842
H         -1.80660       -3.83109        0.47770
