24
5962 lysine
O         -2.16663       -0.61256       -2.43274
O         -0.97137        1.30818       -2.56747
N         -2.63082       -0.25588        0.10987
N          2.43974        1.02317        2.25199
C          1.16740        0.32920       -0.30510
C         -0.15550       -0.29580        0.15860
C          2.40660       -0.38260        0.24350
C         -1.41486        0.39772       -0.37630
C          2.42501       -0.35355        1.77173
C         -1.48003        0.42268       -1.88938
H          1.20030        1.38180        0.00090
H          1.20160        0.31620       -1.40170
H         -0.18141       -0.30997        1.25662
H         -0.17032       -1.34864       -0.15188
H          3.30893        0.10104       -0.15092
H          2.41504       -1.42106       -0.11074
H         -1.43642        1.43903       -0.03409
H          3.30836       -0.87910        2.15061
H          1.53899       -0.86042        2.16889
H         -2.66320       -1.22029       -0.21805
H         -3.45322        0.21078       -0.27020
H          3.27545        1.49673        1.91135
H          2.50461        1.02550        3.26908
H         -2.19548       -0.55936       -3.41179
