24
5962 lysine
O         -0.46083       -0.23066       -2.49992
O         -2.38226        0.97102       -2.51226
N         -2.63082       -0.25588        0.10987
N          3.73394        1.67779        0.17796
C          1.16740        0.32920       -0.30510
C         -0.15550       -0.29580        0.15860
C          2.40660       -0.38260        0.24350
C         -1.41486        0.39772       -0.37630
C          3.68858        0.28558       -0.25322
C         -1.48003        0.42268       -1.88938
H          1.20030        1.38180        0.00090
H          1.20160        0.31620       -1.40170
H         -0.18141       -0.30997        1.25662
H         -0.17032       -1.34864       -0.15188
H          2.38898       -1.43503       -0.06593
H          2.37792       -0.36736        1.34027
H         -1.43642        1.43903       -0.03409
H          3.73958        0.24292       -1.34668
H          4.56471       -0.23918        0.14265
H         -2.66320       -1.22029       -0.21805
H         -3.45322        0.21078       -0.27020
H          2.93759        2.18301       -0.20838
H          4.56732        2.12285       -0.20425
H         -0.54003       -0.20120       -3.47719
