24
5962 lysine
O         -2.52055       -0.02838        2.71776
O         -2.00451       -2.06470        1.86735
N          0.69193       -1.06234        2.35529
N          2.46890       -1.93555       -1.65276
C          1.16740        0.32920       -0.30510
C         -0.15550       -0.29580        0.15860
C          2.40660       -0.38260        0.24350
C         -0.36232       -0.30560        1.67853
C          2.43971       -1.84580       -0.19766
C         -1.69261       -0.90060        2.09156
H          1.20030        1.38180        0.00090
H          1.20160        0.31620       -1.40170
H         -0.22425       -1.32134       -0.22878
H         -0.98259        0.25387       -0.30925
H          2.40643       -0.32189        1.33894
H          3.30784        0.13457       -0.10901
H         -0.33404        0.72123        2.06157
H          1.55901       -2.37619        0.18063
H          3.32802       -2.34166        0.20820
H          0.67503       -2.03421        2.04892
H          0.52572       -1.06898        3.36072
H          1.63208       -1.50176       -2.04038
H          2.43801       -2.91537       -1.93150
H         -3.37415       -0.44501        2.96267
