24
5962 lysine
O         -2.23305       -0.33656        3.19978
O         -2.24432       -1.80302        1.47195
N          0.69193       -1.06234        2.35529
N          3.62537       -2.50813        0.33314
C          1.16740        0.32920       -0.30510
C         -0.15550       -0.29580        0.15860
C          2.40660       -0.38260        0.24350
C         -0.36232       -0.30560        1.67853
C          2.43971       -1.84580       -0.19766
C         -1.69261       -0.90060        2.09156
H          1.20030        1.38180        0.00090
H          1.20160        0.31620       -1.40170
H         -0.22425       -1.32134       -0.22878
H         -0.98259        0.25387       -0.30925
H          2.40643       -0.32189        1.33894
H          3.30784        0.13457       -0.10901
H         -0.33404        0.72123        2.06157
H          2.44624       -1.91238       -1.29109
H          1.54743       -2.36844        0.16339
H          0.67503       -2.03421        2.04892
H          0.52572       -1.06898        3.36072
H          4.46308       -2.04701       -0.01943
H          3.66005       -3.46644       -0.01202
H         -3.09632       -0.74012        3.43239
