24
5962 lysine
O          0.91897        1.51091        2.61308
O         -1.32861        1.76153        2.46602
N         -1.64291       -0.91601        2.03852
N          3.73394        1.67779        0.17796
C          1.16740        0.32920       -0.30510
C         -0.15550       -0.29580        0.15860
C          2.40660       -0.38260        0.24350
C         -0.36232       -0.30560        1.67853
C          3.68858        0.28558       -0.25322
C         -0.32528        1.07952        2.29038
H          1.20030        1.38180        0.00090
H          1.20160        0.31620       -1.40170
H         -0.22425       -1.32134       -0.22878
H         -0.98259        0.25387       -0.30925
H          2.38898       -1.43503       -0.06593
H          2.37792       -0.36736        1.34027
H          0.43211       -0.89155        2.15542
H          3.73958        0.24292       -1.34668
H          4.56471       -0.23918        0.14265
H         -2.41044       -0.37697        1.63975
H         -1.76596       -0.89722        3.04999
H          2.93759        2.18301       -0.20838
H          4.56732        2.12285       -0.20425
H          0.90555        2.41301        2.99808
