24
5962 lysine
O         -2.59939       -0.14140       -2.40633
O         -0.60669        0.92237       -2.58955
N         -2.63082       -0.25588        0.10987
N          2.46890       -1.93555       -1.65276
C          1.16740        0.32920       -0.30510
C         -0.15550       -0.29580        0.15860
C          2.40660       -0.38260        0.24350
C         -1.41486        0.39772       -0.37630
C          2.43971       -1.84580       -0.19766
C         -1.48003        0.42268       -1.88938
H          1.20030        1.38180        0.00090
H          1.20160        0.31620       -1.40170
H         -0.18141       -0.30997        1.25662
H         -0.17032       -1.34864       -0.15188
H          2.40643       -0.32189        1.33894
H          3.30784        0.13457       -0.10901
H         -1.43642        1.43903       -0.03409
H          1.55901       -2.37619        0.18063
H          3.32802       -2.34166        0.20820
H         -2.66320       -1.22029       -0.21805
H         -3.45322        0.21078       -0.27020
H          1.63208       -1.50176       -2.04038
H          2.43801       -2.91537       -1.93150
H         -2.61152       -0.09981       -3.38628
