24
5962 lysine
O         -1.29743       -1.23709       -2.39832
O          0.41789       -2.71647       -2.32628
N          0.70719       -2.61180        0.31040
N          3.73394        1.67779        0.17796
C          1.16740        0.32920       -0.30510
C         -0.15550       -0.29580        0.15860
C          2.40660       -0.38260        0.24350
C         -0.34796       -1.76314       -0.24505
C          3.68858        0.28558       -0.25322
C         -0.36024       -1.96800       -1.74577
H          1.20030        1.38180        0.00090
H          1.20160        0.31620       -1.40170
H         -0.99128        0.30432       -0.22591
H         -0.21267       -0.21740        1.25207
H          2.38898       -1.43503       -0.06593
H          2.37792       -0.36736        1.34027
H         -1.30719       -2.12904        0.13952
H          3.73958        0.24292       -1.34668
H          4.56471       -0.23918        0.14265
H          1.61454       -2.32250       -0.05251
H          0.56843       -3.57776        0.01672
H          2.93759        2.18301       -0.20838
H          4.56732        2.12285       -0.20425
H         -1.27075       -1.38826       -3.36715
