19
6287 valine
O         -1.68204       -0.36617       -2.34342
O          0.46570       -0.28939       -3.05756
N         -1.05588       -0.28569        0.12020
C          1.38040        0.01300       -0.23070
C         -0.04640        0.32430       -0.74450
C          1.73180       -1.47740       -0.16260
C          1.65180        0.68380        1.12000
C         -0.35234       -0.13886       -2.16102
H          2.08430        0.45710       -0.94950
H         -0.20564        1.40965       -0.70972
H          1.55670       -1.95850       -1.13040
H          1.12880       -1.99480        0.59050
H          2.78660       -1.61680        0.09670
H          0.98860        0.29700        1.90070
H          2.68240        0.49310        1.44030
H          1.52870        1.77010        1.07170
H         -1.98270        0.04473       -0.14670
H         -0.91333        0.01979        1.08225
H         -1.87986       -0.65780       -3.25893
19
6287 valine
O          0.77369       -0.21988       -2.92164
O         -1.45836       -0.42431       -2.59789
N         -1.05588       -0.28569        0.12020
C          1.38040        0.01300       -0.23070
C         -0.04640        0.32430       -0.74450
C          1.73180       -1.47740       -0.16260
C          1.65180        0.68380        1.12000
C         -0.35234       -0.13886       -2.16102
H          2.08430        0.45710       -0.94950
H         -0.20564        1.40965       -0.70972
H          1.55670       -1.95850       -1.13040
H          1.12880       -1.99480        0.59050
H          2.78660       -1.61680        0.09670
H          0.98860        0.29700        1.90070
H          2.68240        0.49310        1.44030
H          1.52870        1.77010        1.07170
H         -1.98270        0.04473       -0.14670
H         -0.91333        0.01979        1.08225
H          0.57699       -0.52552       -3.83281
19
6287 valine
O         -2.33116        0.43633       -0.05462
O         -1.11984       -1.31027        0.72690
N         -0.28629        1.76668       -0.77343
C          1.38040        0.01300       -0.23070
C         -0.04640        0.32430       -0.74450
C          1.73180       -1.47740       -0.16260
C          1.65180        0.68380        1.12000
C         -1.18421       -0.28804        0.05866
H          2.08430        0.45710       -0.94950
H         -0.13742       -0.03823       -1.77641
H          1.55670       -1.95850       -1.13040
H          1.12880       -1.99480        0.59050
H          2.78660       -1.61680        0.09670
H          0.98860        0.29700        1.90070
H          2.68240        0.49310        1.44030
H          1.52870        1.77010        1.07170
H         -1.16959        1.95923       -1.24472
H          0.43589        2.22343       -1.32931
H         -3.06654        0.03723        0.45752
19
6287 valine
O         -2.23874       -0.62551       -0.73325
O         -1.18537       -0.48103        1.26630
N         -0.28629        1.76668       -0.77343
C          1.38040        0.01300       -0.23070
C         -0.04640        0.32430       -0.74450
C          1.73180       -1.47740       -0.16260
C          1.65180        0.68380        1.12000
C         -1.18421       -0.28804        0.05866
H          2.08430        0.45710       -0.94950
H         -0.13742       -0.03823       -1.77641
H          1.55670       -1.95850       -1.13040
H          1.12880       -1.99480        0.59050
H          2.78660       -1.61680        0.09670
H          0.98860        0.29700        1.90070
H          2.68240        0.49310        1.44030
H          1.52870        1.77010        1.07170
H         -1.16959        1.95923       -1.24472
H          0.43589        2.22343       -1.32931
H         -2.96930       -1.02697       -0.21609
19
6287 valine
O          0.02456        0.78396       -3.08807
O         -0.86236       -1.20632       -2.47092
N         -1.05588       -0.28569        0.12020
C          1.38040        0.01300       -0.23070
C         -0.04640        0.32430       -0.74450
C          1.73180       -1.47740       -0.16260
C          1.65180        0.68380        1.12000
C         -0.35234       -0.13886       -2.16102
H          2.08430        0.45710       -0.94950
H         -0.20564        1.40965       -0.70972
H          1.55670       -1.95850       -1.13040
H          1.12880       -1.99480        0.59050
H          2.78660       -1.61680        0.09670
H          0.98860        0.29700        1.90070
H          2.68240        0.49310        1.44030
H          1.52870        1.77010        1.07170
H         -1.98270        0.04473       -0.14670
H         -0.91333        0.01979        1.08225
H         -0.16621        0.48190       -4.00169
19
6287 valine
O         -1.71776        1.97716       -1.17257
O          0.31008        2.73370       -0.50609
N         -0.23681       -0.19396       -2.09876
C          1.38040        0.01300       -0.23070
C         -0.04640        0.32430       -0.74450
C          1.73180       -1.47740       -0.16260
C          1.65180        0.68380        1.12000
C         -0.42461        1.79732       -0.78724
H          2.08430        0.45710       -0.94950
H         -0.77344       -0.18529       -0.09930
H          1.55670       -1.95850       -1.13040
H          1.12880       -1.99480        0.59050
H          2.78660       -1.61680        0.09670
H          0.98860        0.29700        1.90070
H          2.68240        0.49310        1.44030
H          1.52870        1.77010        1.07170
H         -1.21709       -0.10812       -2.36539
H         -0.02530       -1.19101       -2.11735
H         -1.96343        2.92667       -1.19301
19
6287 valine
O         -1.20331        0.71081       -2.79896
O          0.09967       -1.13886       -2.70076
N         -1.05588       -0.28569        0.12020
C          1.38040        0.01300       -0.23070
C         -0.04640        0.32430       -0.74450
C          1.73180       -1.47740       -0.16260
C          1.65180        0.68380        1.12000
C         -0.35234       -0.13886       -2.16102
H          2.08430        0.45710       -0.94950
H         -0.20564        1.40965       -0.70972
H          1.55670       -1.95850       -1.13040
H          1.12880       -1.99480        0.59050
H          2.78660       -1.61680        0.09670
H          0.98860        0.29700        1.90070
H          2.68240        0.49310        1.44030
H          1.52870        1.77010        1.07170
H         -1.98270        0.04473       -0.14670
H         -0.91333        0.01979        1.08225
H         -1.39463        0.41575       -3.71475
19
6287 valine
O         -1.06606       -1.64082        0.15395
O         -2.10391        0.32630        0.58055
N         -0.28629        1.76668       -0.77343
C          1.38040        0.01300       -0.23070
C         -0.04640        0.32430       -0.74450
C          1.73180       -1.47740       -0.16260
C          1.65180        0.68380        1.12000
C         -1.18421       -0.28804        0.05866
H          2.08430        0.45710       -0.94950
H         -0.13742       -0.03823       -1.77641
H          1.55670       -1.95850       -1.13040
H          1.12880       -1.99480        0.59050
H          2.78660       -1.61680        0.09670
H          0.98860        0.29700        1.90070
H          2.68240        0.49310        1.44030
H          1.52870        1.77010        1.07170
H         -1.16959        1.95923       -1.24472
H          0.43589        2.22343       -1.32931
H         -1.79590       -2.03455        0.67802
19
6287 valine
O         -1.65537        0.56997        1.00464
O         -1.65421       -1.40549       -0.10272
N         -0.28629        1.76668       -0.77343
C          1.38040        0.01300       -0.23070
C         -0.04640        0.32430       -0.74450
C          1.73180       -1.47740       -0.16260
C          1.65180        0.68380        1.12000
C         -1.18421       -0.28804        0.05866
H          2.08430        0.45710       -0.94950
H         -0.13742       -0.03823       -1.77641
H          1.55670       -1.95850       -1.13040
H          1.12880       -1.99480        0.59050
H          2.78660       -1.61680        0.09670
H          0.98860        0.29700        1.90070
H          2.68240        0.49310        1.44030
H          1.52870        1.77010        1.07170
H         -1.16959        1.95923       -1.24472
H          0.43589        2.22343       -1.32931
H         -2.39382        0.17751        1.51748
19
6287 valine
O         -0.91853        2.22817        0.40585
O         -0.30410        2.53986       -1.75147
N         -0.23681       -0.19396       -2.09876
C          1.38040        0.01300       -0.23070
C         -0.04640        0.32430       -0.74450
C          1.73180       -1.47740       -0.16260
C          1.65180        0.68380        1.12000
C         -0.42461        1.79732       -0.78724
H          2.08430        0.45710       -0.94950
H         -0.77344       -0.18529       -0.09930
H          1.55670       -1.95850       -1.13040
H          1.12880       -1.99480        0.59050
H          2.78660       -1.61680        0.09670
H          0.98860        0.29700        1.90070
H          2.68240        0.49310        1.44030
H          1.52870        1.77010        1.07170
H         -1.21709       -0.10812       -2.36539
H         -0.02530       -1.19101       -2.11735
H         -1.15550        3.17976        0.38011
19
6287 valine
O         -1.22613        0.19834        1.32938
O         -1.99042       -1.10999       -0.35372
N         -0.28629        1.76668       -0.77343
C          1.38040        0.01300       -0.23070
C         -0.04640        0.32430       -0.74450
C          1.73180       -1.47740       -0.16260
C          1.65180        0.68380        1.12000
C         -1.18421       -0.28804        0.05866
H          2.08430        0.45710       -0.94950
H         -0.13742       -0.03823       -1.77641
H          1.55670       -1.95850       -1.13040
H          1.12880       -1.99480        0.59050
H          2.78660       -1.61680        0.09670
H          0.98860        0.29700        1.90070
H          2.68240        0.49310        1.44030
H          1.52870        1.77010        1.07170
H         -1.16959        1.95923       -1.24472
H          0.43589        2.22343       -1.32931
H         -1.96433       -0.19129        1.84475
19
6287 valine
O         -0.18248        2.34709       -2.00878
O         -0.90114        2.44136        0.13675
N         -0.23681       -0.19396       -2.09876
C          1.38040        0.01300       -0.23070
C         -0.04640        0.32430       -0.74450
C          1.73180       -1.47740       -0.16260
C          1.65180        0.68380        1.12000
C         -0.42461        1.79732       -0.78724
H          2.08430        0.45710       -0.94950
H         -0.77344       -0.18529       -0.09930
H          1.55670       -1.95850       -1.13040
H          1.12880       -1.99480        0.59050
H          2.78660       -1.61680        0.09670
H          0.98860        0.29700        1.90070
H          2.68240        0.49310        1.44030
H          1.52870        1.77010        1.07170
H         -1.21709       -0.10812       -2.36539
H         -0.02530       -1.19101       -2.11735
H         -0.43323        3.29504       -2.03816
19
6287 valine
O         -0.29806       -1.49439       -2.27344
O         -0.62911        0.58509       -3.10703
N         -1.05588       -0.28569        0.12020
C          1.38040        0.01300       -0.23070
C         -0.04640        0.32430       -0.74450
C          1.73180       -1.47740       -0.16260
C          1.65180        0.68380        1.12000
C         -0.35234       -0.13886       -2.16102
H          2.08430        0.45710       -0.94950
H         -0.20564        1.40965       -0.70972
H          1.55670       -1.95850       -1.13040
H          1.12880       -1.99480        0.59050
H          2.78660       -1.61680        0.09670
H          0.98860        0.29700        1.90070
H          2.68240        0.49310        1.44030
H          1.52870        1.77010        1.07170
H         -1.98270        0.04473       -0.14670
H         -0.91333        0.01979        1.08225
H         -0.50250       -1.79311       -3.18520
19
6287 valine
O         -0.72925       -0.95061        1.15733
O         -2.37460       -0.20744       -0.20985
N         -0.28629        1.76668       -0.77343
C          1.38040        0.01300       -0.23070
C         -0.04640        0.32430       -0.74450
C          1.73180       -1.47740       -0.16260
C          1.65180        0.68380        1.12000
C         -1.18421       -0.28804        0.05866
H          2.08430        0.45710       -0.94950
H         -0.13742       -0.03823       -1.77641
H          1.55670       -1.95850       -1.13040
H          1.12880       -1.99480        0.59050
H          2.78660       -1.61680        0.09670
H          0.98860        0.29700        1.90070
H          2.68240        0.49310        1.44030
H          1.52870        1.77010        1.07170
H         -1.16959        1.95923       -1.24472
H          0.43589        2.22343       -1.32931
H         -1.46365       -1.33914        1.67890
19
6287 valine
O          0.61675        2.59810       -0.43037
O         -1.51532        2.24752       -1.10863
N         -0.23681       -0.19396       -2.09876
C          1.38040        0.01300       -0.23070
C         -0.04640        0.32430       -0.74450
C          1.73180       -1.47740       -0.16260
C          1.65180        0.68380        1.12000
C         -0.42461        1.79732       -0.78724
H          2.08430        0.45710       -0.94950
H         -0.77344       -0.18529       -0.09930
H          1.55670       -1.95850       -1.13040
H          1.12880       -1.99480        0.59050
H          2.78660       -1.61680        0.09670
H          0.98860        0.29700        1.90070
H          2.68240        0.49310        1.44030
H          1.52870        1.77010        1.07170
H         -1.21709       -0.10812       -2.36539
H         -0.02530       -1.19101       -2.11735
H          0.37470        3.54813       -0.46504
