19
6287 valine
O         -1.22613        0.19834        1.32938
O         -1.99042       -1.10999       -0.35372
N         -0.28629        1.76668       -0.77343
C          1.38040        0.01300       -0.23070
C         -0.04640        0.32430       -0.74450
C          1.73180       -1.47740       -0.16260
C          1.65180        0.68380        1.12000
C         -1.18421       -0.28804        0.05866
H          2.08430        0.45710       -0.94950
H         -0.13742       -0.03823       -1.77641
H          1.55670       -1.95850       -1.13040
H          1.12880       -1.99480        0.59050
H          2.78660       -1.61680        0.09670
H          0.98860        0.29700        1.90070
H          2.68240        0.49310        1.44030
H          1.52870        1.77010        1.07170
H         -1.16959        1.95923       -1.24472
H          0.43589        2.22343       -1.32931
H         -1.96433       -0.19129        1.84475
