23
6140 phenylalanine
O         -1.55792       -1.06562       -1.87955
O         -2.21275       -1.59073        0.22786
N         -2.96574        1.21538        0.15347
C         -0.60900        0.98120        0.79050
C         -1.66520        0.72410       -0.29570
C          0.75930        0.46120        0.41410
C          1.36348       -0.49588        1.21251
C          1.38174        0.95156       -0.72186
C         -1.83695       -0.75697       -0.58629
C          2.62611       -0.97612        0.86519
C          2.64440        0.47110       -1.06918
C          3.26657       -0.49263       -0.27565
H         -0.91800        0.53780        1.74710
H         -0.51610        2.05890        0.98590
H         -1.42251        1.24101       -1.23130
H          0.87468       -0.87724        2.10436
H          0.90422        1.70006       -1.34753
H         -2.91286        2.22023        0.31778
H         -3.20096        0.79927        1.05440
H          3.11081       -1.72628        1.48326
H          3.14301        0.84702       -1.95791
H          4.24970       -0.86671       -0.54614
H         -1.68320       -2.02104       -2.06256
23
6140 phenylalanine
O         -2.78858       -1.33009        0.19577
O         -1.18247       -1.38983       -1.40504
N         -2.96574        1.21538        0.15347
C         -0.60900        0.98120        0.79050
C         -1.66520        0.72410       -0.29570
C          0.75930        0.46120        0.41410
C          1.36348       -0.49588        1.21251
C          1.38174        0.95156       -0.72186
C         -1.83695       -0.75697       -0.58629
C          2.62611       -0.97612        0.86519
C          2.64440        0.47110       -1.06918
C          3.26657       -0.49263       -0.27565
H         -0.91800        0.53780        1.74710
H         -0.51610        2.05890        0.98590
H         -1.42251        1.24101       -1.23130
H          0.87468       -0.87724        2.10436
H          0.90422        1.70006       -1.34753
H         -2.91286        2.22023        0.31778
H         -3.20096        0.79927        1.05440
H          3.11081       -1.72628        1.48326
H          3.14301        0.84702       -1.95791
H          4.24970       -0.86671       -0.54614
H         -2.88482       -2.28857        0.01125
23
6140 phenylalanine
O         -3.97158        1.02630       -0.85471
O         -3.27792        1.84757        1.14281
N         -1.28878        1.41790       -1.52511
C         -0.60900        0.98120        0.79050
C         -1.66520        0.72410       -0.29570
C          0.75930        0.46120        0.41410
C          1.10818       -0.83552        0.75364
C          1.63702        1.29132       -0.26324
C         -3.03276        1.25345        0.10063
C          2.37078       -1.31572        0.40614
C          2.89962        0.81092       -0.61084
C          3.26650       -0.49250       -0.27610
H         -0.91800        0.53780        1.74710
H         -0.51610        2.05890        0.98590
H         -1.75523       -0.34221       -0.53303
H          0.41926       -1.48404        1.28710
H          1.35954        2.30684       -0.53060
H         -0.39339        1.06137       -1.85780
H         -1.13834        2.40797       -1.33202
H          2.65666       -2.33054        0.66710
H          3.59704        1.45164       -1.14270
H          4.24960       -0.86650       -0.54680
H         -4.84864        1.38192       -0.59720
23
6140 phenylalanine
O         -3.49820        0.68018        1.24098
O         -3.67473        2.07926       -0.53586
N         -1.28878        1.41790       -1.52511
C         -0.60900        0.98120        0.79050
C         -1.66520        0.72410       -0.29570
C          0.75930        0.46120        0.41410
C          1.10818       -0.83552        0.75364
C          1.63702        1.29132       -0.26324
C         -3.03276        1.25345        0.10063
C          2.37078       -1.31572        0.40614
C          2.89962        0.81092       -0.61084
C          3.26650       -0.49250       -0.27610
H         -0.91800        0.53780        1.74710
H         -0.51610        2.05890        0.98590
H         -1.75523       -0.34221       -0.53303
H          0.41926       -1.48404        1.28710
H          1.35954        2.30684       -0.53060
H         -0.39339        1.06137       -1.85780
H         -1.13834        2.40797       -1.33202
H          2.65666       -2.33054        0.66710
H          3.59704        1.45164       -1.14270
H          4.24960       -0.86650       -0.54680
H         -4.38666        1.01759        1.48346
23
6140 phenylalanine
O         -1.18485        2.73735       -1.49540
O         -1.16130        0.80136       -2.67739
N         -1.76008       -0.70902       -0.56340
C         -0.60900        0.98120        0.79050
C         -1.66520        0.72410       -0.29570
C          0.75930        0.46120        0.41410
C          1.10818       -0.83552        0.75364
C          1.63702        1.29132       -0.26324
C         -1.30373        1.38911       -1.61274
C          2.37078       -1.31572        0.40614
C          2.89962        0.81092       -0.61084
C          3.26650       -0.49250       -0.27610
H         -0.91800        0.53780        1.74710
H         -0.51610        2.05890        0.98590
H         -2.65919        1.06870        0.01201
H          0.41926       -1.48404        1.28710
H          1.35954        2.30684       -0.53060
H         -2.04728       -1.19643        0.28482
H         -0.83913       -1.07945       -0.79750
H          2.65666       -2.33054        0.66710
H          3.59704        1.45164       -1.14270
H          4.24960       -0.86650       -0.54680
H         -0.96387        3.16077       -2.35208
23
6140 phenylalanine
O         -3.02423        2.59413        0.32013
O         -4.03528        0.56496        0.24259
N         -1.28878        1.41790       -1.52511
C         -0.60900        0.98120        0.79050
C         -1.66520        0.72410       -0.29570
C          0.75930        0.46120        0.41410
C          0.85954       -0.64515       -0.41320
C          1.88579        1.10143        0.90341
C         -3.03276        1.25345        0.10063
C          2.12219       -1.12506       -0.76093
C          3.14847        0.62149        0.55547
C          3.26665       -0.49174       -0.27659
H         -0.91800        0.53780        1.74710
H         -0.51610        2.05890        0.98590
H         -1.75523       -0.34221       -0.53303
H         -0.02519       -1.14731       -0.79378
H          1.80400        1.97051        1.54975
H         -0.39339        1.06137       -1.85780
H         -1.13834        2.40797       -1.33202
H          2.21429       -1.99213       -1.40853
H          4.03981        1.11494        0.93202
H          4.24984       -0.86537       -0.54749
H         -3.90741        2.92635        0.58776
23
6140 phenylalanine
O         -4.04496        0.52835       -0.44283
O         -3.22538        2.23778        0.80292
N         -1.28878        1.41790       -1.52511
C         -0.60900        0.98120        0.79050
C         -1.66520        0.72410       -0.29570
C          0.75930        0.46120        0.41410
C          0.85954       -0.64515       -0.41320
C          1.88579        1.10143        0.90341
C         -3.03276        1.25345        0.10063
C          2.12219       -1.12506       -0.76093
C          3.14847        0.62149        0.55547
C          3.26665       -0.49174       -0.27659
H         -0.91800        0.53780        1.74710
H         -0.51610        2.05890        0.98590
H         -1.75523       -0.34221       -0.53303
H         -0.02519       -1.14731       -0.79378
H          1.80400        1.97051        1.54975
H         -0.39339        1.06137       -1.85780
H         -1.13834        2.40797       -1.33202
H          2.21429       -1.99213       -1.40853
H          4.03981        1.11494        0.93202
H          4.24984       -0.86537       -0.54749
H         -4.92432        0.88361       -0.19279
23
6140 phenylalanine
O         -3.49820        0.68018        1.24098
O         -3.67473        2.07926       -0.53586
N         -1.28878        1.41790       -1.52511
C         -0.60900        0.98120        0.79050
C         -1.66520        0.72410       -0.29570
C          0.75930        0.46120        0.41410
C          0.85954       -0.64515       -0.41320
C          1.88579        1.10143        0.90341
C         -3.03276        1.25345        0.10063
C          2.12219       -1.12506       -0.76093
C          3.14847        0.62149        0.55547
C          3.26665       -0.49174       -0.27659
H         -0.91800        0.53780        1.74710
H         -0.51610        2.05890        0.98590
H         -1.75523       -0.34221       -0.53303
H         -0.02519       -1.14731       -0.79378
H          1.80400        1.97051        1.54975
H         -0.39339        1.06137       -1.85780
H         -1.13834        2.40797       -1.33202
H          2.21429       -1.99213       -1.40853
H          4.03981        1.11494        0.93202
H          4.24984       -0.86537       -0.54749
H         -4.38666        1.01759        1.48346
23
6140 phenylalanine
O         -2.95105        2.33872        0.91376
O         -4.09990        0.75675       -0.23656
N         -1.28878        1.41790       -1.52511
C         -0.60900        0.98120        0.79050
C         -1.66520        0.72410       -0.29570
C          0.75930        0.46120        0.41410
C          0.85954       -0.64515       -0.41320
C          1.88579        1.10143        0.90341
C         -3.03276        1.25345        0.10063
C          2.12219       -1.12506       -0.76093
C          3.14847        0.62149        0.55547
C          3.26665       -0.49174       -0.27659
H         -0.91800        0.53780        1.74710
H         -0.51610        2.05890        0.98590
H         -1.75523       -0.34221       -0.53303
H         -0.02519       -1.14731       -0.79378
H          1.80400        1.97051        1.54975
H         -0.39339        1.06137       -1.85780
H         -1.13834        2.40797       -1.33202
H          2.21429       -1.99213       -1.40853
H          4.03981        1.11494        0.93202
H          4.24984       -0.86537       -0.54749
H         -3.83749        2.66696        1.17548
23
6140 phenylalanine
O         -1.78739        0.70916       -2.68485
O         -0.62858        2.40475       -1.72159
N         -1.76008       -0.70902       -0.56340
C         -0.60900        0.98120        0.79050
C         -1.66520        0.72410       -0.29570
C          0.75930        0.46120        0.41410
C          1.10818       -0.83552        0.75364
C          1.63702        1.29132       -0.26324
C         -1.30373        1.38911       -1.61274
C          2.37078       -1.31572        0.40614
C          2.89962        0.81092       -0.61084
C          3.26650       -0.49250       -0.27610
H         -0.91800        0.53780        1.74710
H         -0.51610        2.05890        0.98590
H         -2.65919        1.06870        0.01201
H          0.41926       -1.48404        1.28710
H          1.35954        2.30684       -0.53060
H         -2.04728       -1.19643        0.28482
H         -0.83913       -1.07945       -0.79750
H          2.65666       -2.33054        0.66710
H          3.59704        1.45164       -1.14270
H          4.24960       -0.86650       -0.54680
H         -1.53933        1.13749       -3.53162
23
6140 phenylalanine
O         -1.58669       -1.52969        0.50273
O         -2.13576       -1.22589       -1.67718
N         -2.96574        1.21538        0.15347
C         -0.60900        0.98120        0.79050
C         -1.66520        0.72410       -0.29570
C          0.75930        0.46120        0.41410
C          1.10818       -0.83552        0.75364
C          1.63702        1.29132       -0.26324
C         -1.83695       -0.75697       -0.58629
C          2.37078       -1.31572        0.40614
C          2.89962        0.81092       -0.61084
C          3.26650       -0.49250       -0.27610
H         -0.91800        0.53780        1.74710
H         -0.51610        2.05890        0.98590
H         -1.42251        1.24101       -1.23130
H          0.41926       -1.48404        1.28710
H          1.35954        2.30684       -0.53060
H         -2.91286        2.22023        0.31778
H         -3.20096        0.79927        1.05440
H          2.65666       -2.33054        0.66710
H          3.59704        1.45164       -1.14270
H          4.24960       -0.86650       -0.54680
H         -1.68727       -2.48490        0.30407
23
6140 phenylalanine
O         -0.69349       -1.46043       -0.37819
O         -2.86934       -1.27520       -0.99226
N         -2.96574        1.21538        0.15347
C         -0.60900        0.98120        0.79050
C         -1.66520        0.72410       -0.29570
C          0.75930        0.46120        0.41410
C          1.36348       -0.49588        1.21251
C          1.38174        0.95156       -0.72186
C         -1.83695       -0.75697       -0.58629
C          2.62611       -0.97612        0.86519
C          2.64440        0.47110       -1.06918
C          3.26657       -0.49263       -0.27565
H         -0.91800        0.53780        1.74710
H         -0.51610        2.05890        0.98590
H         -1.42251        1.24101       -1.23130
H          0.87468       -0.87724        2.10436
H          0.90422        1.70006       -1.34753
H         -2.91286        2.22023        0.31778
H         -3.20096        0.79927        1.05440
H          3.11081       -1.72628        1.48326
H          3.14301        0.84702       -1.95791
H          4.24970       -0.86671       -0.54614
H         -0.80871       -2.41334       -0.57992
23
6140 phenylalanine
O         -0.12188        0.94090       -2.11074
O         -1.97018        2.25488       -2.16547
N         -1.76008       -0.70902       -0.56340
C         -0.60900        0.98120        0.79050
C         -1.66520        0.72410       -0.29570
C          0.75930        0.46120        0.41410
C          1.10818       -0.83552        0.75364
C          1.63702        1.29132       -0.26324
C         -1.30373        1.38911       -1.61274
C          2.37078       -1.31572        0.40614
C          2.89962        0.81092       -0.61084
C          3.26650       -0.49250       -0.27610
H         -0.91800        0.53780        1.74710
H         -0.51610        2.05890        0.98590
H         -2.65919        1.06870        0.01201
H          0.41926       -1.48404        1.28710
H          1.35954        2.30684       -0.53060
H         -2.04728       -1.19643        0.28482
H         -0.83913       -1.07945       -0.79750
H          2.65666       -2.33054        0.66710
H          3.59704        1.45164       -1.14270
H          4.24960       -0.86650       -0.54680
H          0.11081        1.38380       -2.95436
23
6140 phenylalanine
O         -3.09727       -1.06123       -0.99210
O         -0.96277       -1.60308       -0.44799
N         -2.96574        1.21538        0.15347
C         -0.60900        0.98120        0.79050
C         -1.66520        0.72410       -0.29570
C          0.75930        0.46120        0.41410
C          1.10818       -0.83552        0.75364
C          1.63702        1.29132       -0.26324
C         -1.83695       -0.75697       -0.58629
C          2.37078       -1.31572        0.40614
C          2.89962        0.81092       -0.61084
C          3.26650       -0.49250       -0.27610
H         -0.91800        0.53780        1.74710
H         -0.51610        2.05890        0.98590
H         -1.42251        1.24101       -1.23130
H          0.41926       -1.48404        1.28710
H          1.35954        2.30684       -0.53060
H         -2.91286        2.22023        0.31778
H         -3.20096        0.79927        1.05440
H          2.65666       -2.33054        0.66710
H          3.59704        1.45164       -1.14270
H          4.24960       -0.86650       -0.54680
H         -3.20382       -2.02069       -1.16557
23
6140 phenylalanine
O         -1.58669       -1.52969        0.50273
O         -2.13576       -1.22589       -1.67718
N         -2.96574        1.21538        0.15347
C         -0.60900        0.98120        0.79050
C         -1.66520        0.72410       -0.29570
C          0.75930        0.46120        0.41410
C          1.81234        0.62241        1.29931
C          0.93306       -0.16659       -0.80819
C         -1.83695       -0.75697       -0.58629
C          3.07513        0.14236        0.95228
C          2.19595       -0.64676       -1.15506
C          3.26693       -0.49222       -0.27491
H         -0.91800        0.53780        1.74710
H         -0.51610        2.05890        0.98590
H         -1.42251        1.24101       -1.23130
H          1.67447        1.11731        2.25630
H          0.10472       -0.29400       -1.49909
H         -2.91286        2.22023        0.31778
H         -3.20096        0.79927        1.05440
H          3.90921        0.26299        1.63743
H          2.34535       -1.14153       -2.11039
H          4.25022       -0.86614       -0.54504
H         -1.68727       -2.48490        0.30407
23
6140 phenylalanine
O         -2.78858       -1.33009        0.19577
O         -1.18247       -1.38983       -1.40504
N         -2.96574        1.21538        0.15347
C         -0.60900        0.98120        0.79050
C         -1.66520        0.72410       -0.29570
C          0.75930        0.46120        0.41410
C          0.92372       -0.89016        0.15859
C          1.82152        1.34618        0.33165
C         -1.83695       -0.75697       -0.58629
C          2.18633       -1.37024       -0.18906
C          3.08413        0.86597       -0.01618
C          3.26653       -0.49217       -0.27644
H         -0.91800        0.53780        1.74710
H         -0.51610        2.05890        0.98590
H         -1.42251        1.24101       -1.23130
H          0.08988       -1.58289        0.22630
H          1.68889        2.40583        0.52988
H         -2.91286        2.22023        0.31778
H         -3.20096        0.79927        1.05440
H          2.32851       -2.42784       -0.39137
H          3.92529        1.54970       -0.08491
H          4.24965       -0.86601       -0.54729
H         -2.88482       -2.28857        0.01125
23
6140 phenylalanine
O         -1.00218       -1.19157       -1.56606
O         -2.64965       -1.48845       -0.03521
N         -2.96574        1.21538        0.15347
C         -0.60900        0.98120        0.79050
C         -1.66520        0.72410       -0.29570
C          0.75930        0.46120        0.41410
C          0.92372       -0.89016        0.15859
C          1.82152        1.34618        0.33165
C         -1.83695       -0.75697       -0.58629
C          2.18633       -1.37024       -0.18906
C          3.08413        0.86597       -0.01618
C          3.26653       -0.49217       -0.27644
H         -0.91800        0.53780        1.74710
H         -0.51610        2.05890        0.98590
H         -1.42251        1.24101       -1.23130
H          0.08988       -1.58289        0.22630
H          1.68889        2.40583        0.52988
H         -2.91286        2.22023        0.31778
H         -3.20096        0.79927        1.05440
H          2.32851       -2.42784       -0.39137
H          3.92529        1.54970       -0.08491
H          4.24965       -0.86601       -0.54729
H         -1.12771       -2.14546       -1.75674
23
6140 phenylalanine
O         -1.55792       -1.06562       -1.87955
O         -2.21275       -1.59073        0.22786
N         -2.96574        1.21538        0.15347
C         -0.60900        0.98120        0.79050
C         -1.66520        0.72410       -0.29570
C          0.75930        0.46120        0.41410
C          1.81234        0.62241        1.29931
C          0.93306       -0.16659       -0.80819
C         -1.83695       -0.75697       -0.58629
C          3.07513        0.14236        0.95228
C          2.19595       -0.64676       -1.15506
C          3.26693       -0.49222       -0.27491
H         -0.91800        0.53780        1.74710
H         -0.51610        2.05890        0.98590
H         -1.42251        1.24101       -1.23130
H          1.67447        1.11731        2.25630
H          0.10472       -0.29400       -1.49909
H         -2.91286        2.22023        0.31778
H         -3.20096        0.79927        1.05440
H          3.90921        0.26299        1.63743
H          2.34535       -1.14153       -2.11039
H          4.25022       -0.86614       -0.54504
H         -1.68320       -2.02104       -2.06256
23
6140 phenylalanine
O         -3.22435        2.53855       -0.29619
O         -3.87080        0.62298        0.73262
N         -1.28878        1.41790       -1.52511
C         -0.60900        0.98120        0.79050
C         -1.66520        0.72410       -0.29570
C          0.75930        0.46120        0.41410
C          1.36348       -0.49588        1.21251
C          1.38174        0.95156       -0.72186
C         -3.03276        1.25345        0.10063
C          2.62611       -0.97612        0.86519
C          2.64440        0.47110       -1.06918
C          3.26657       -0.49263       -0.27565
H         -0.91800        0.53780        1.74710
H         -0.51610        2.05890        0.98590
H         -1.75523       -0.34221       -0.53303
H          0.87468       -0.87724        2.10436
H          0.90422        1.70006       -1.34753
H         -0.39339        1.06137       -1.85780
H         -1.13834        2.40797       -1.33202
H          3.11081       -1.72628        1.48326
H          3.14301        0.84702       -1.95791
H          4.24970       -0.86671       -0.54614
H         -4.10421        2.87730       -0.02579
23
6140 phenylalanine
O         -2.23964        2.28980       -2.01087
O         -0.30431        1.13593       -2.27326
N         -1.76008       -0.70902       -0.56340
C         -0.60900        0.98120        0.79050
C         -1.66520        0.72410       -0.29570
C          0.75930        0.46120        0.41410
C          0.92372       -0.89016        0.15859
C          1.82152        1.34618        0.33165
C         -1.30373        1.38911       -1.61274
C          2.18633       -1.37024       -0.18906
C          3.08413        0.86597       -0.01618
C          3.26653       -0.49217       -0.27644
H         -0.91800        0.53780        1.74710
H         -0.51610        2.05890        0.98590
H         -2.65919        1.06870        0.01201
H          0.08988       -1.58289        0.22630
H          1.68889        2.40583        0.52988
H         -2.04728       -1.19643        0.28482
H         -0.83913       -1.07945       -0.79750
H          2.32851       -2.42784       -0.39137
H          3.92529        1.54970       -0.08491
H          4.24965       -0.86601       -0.54729
H         -2.00560        2.70556       -2.86783
23
6140 phenylalanine
O         -3.09727       -1.06123       -0.99210
O         -0.96277       -1.60308       -0.44799
N         -2.96574        1.21538        0.15347
C         -0.60900        0.98120        0.79050
C         -1.66520        0.72410       -0.29570
C          0.75930        0.46120        0.41410
C          1.81234        0.62241        1.29931
C          0.93306       -0.16659       -0.80819
C         -1.83695       -0.75697       -0.58629
C          3.07513        0.14236        0.95228
C          2.19595       -0.64676       -1.15506
C          3.26693       -0.49222       -0.27491
H         -0.91800        0.53780        1.74710
H         -0.51610        2.05890        0.98590
H         -1.42251        1.24101       -1.23130
H          1.67447        1.11731        2.25630
H          0.10472       -0.29400       -1.49909
H         -2.91286        2.22023        0.31778
H         -3.20096        0.79927        1.05440
H          3.90921        0.26299        1.63743
H          2.34535       -1.14153       -2.11039
H          4.25022       -0.86614       -0.54504
H         -3.20382       -2.02069       -1.16557
23
6140 phenylalanine
O         -1.78739        0.70916       -2.68485
O         -0.62858        2.40475       -1.72159
N         -1.76008       -0.70902       -0.56340
C         -0.60900        0.98120        0.79050
C         -1.66520        0.72410       -0.29570
C          0.75930        0.46120        0.41410
C          1.62122        0.03776        1.41224
C          1.12407        0.41793       -0.92133
C         -1.30373        1.38911       -1.61274
C          2.88393       -0.44242        1.06509
C          2.38684       -0.06245       -1.26837
C          3.26673       -0.49253       -0.27521
H         -0.91800        0.53780        1.74710
H         -0.51610        2.05890        0.98590
H         -2.65919        1.06870        0.01201
H          1.33412        0.07492        2.45911
H          0.44492        0.74809       -1.70203
H         -2.04728       -1.19643        0.28482
H         -0.83913       -1.07945       -0.79750
H          3.56928       -0.77698        1.83843
H          2.68486       -0.10215       -2.31211
H          4.24993       -0.86658       -0.54550
H         -1.53933        1.13749       -3.53162
23
6140 phenylalanine
O         -0.12597        2.06290       -1.54533
O         -1.99423        1.36083       -2.62350
N         -1.76008       -0.70902       -0.56340
C         -0.60900        0.98120        0.79050
C         -1.66520        0.72410       -0.29570
C          0.75930        0.46120        0.41410
C          0.92372       -0.89016        0.15859
C          1.82152        1.34618        0.33165
C         -1.30373        1.38911       -1.61274
C          2.18633       -1.37024       -0.18906
C          3.08413        0.86597       -0.01618
C          3.26653       -0.49217       -0.27644
H         -0.91800        0.53780        1.74710
H         -0.51610        2.05890        0.98590
H         -2.65919        1.06870        0.01201
H          0.08988       -1.58289        0.22630
H          1.68889        2.40583        0.52988
H         -2.04728       -1.19643        0.28482
H         -0.83913       -1.07945       -0.79750
H          2.32851       -2.42784       -0.39137
H          3.92529        1.54970       -0.08491
H          4.24965       -0.86601       -0.54729
H          0.09434        2.49989       -2.39534
23
6140 phenylalanine
O         -2.23964        2.28980       -2.01087
O         -0.30431        1.13593       -2.27326
N         -1.76008       -0.70902       -0.56340
C         -0.60900        0.98120        0.79050
C         -1.66520        0.72410       -0.29570
C          0.75930        0.46120        0.41410
C          1.36348       -0.49588        1.21251
C          1.38174        0.95156       -0.72186
C         -1.30373        1.38911       -1.61274
C          2.62611       -0.97612        0.86519
C          2.64440        0.47110       -1.06918
C          3.26657       -0.49263       -0.27565
H         -0.91800        0.53780        1.74710
H         -0.51610        2.05890        0.98590
H         -2.65919        1.06870        0.01201
H          0.87468       -0.87724        2.10436
H          0.90422        1.70006       -1.34753
H         -2.04728       -1.19643        0.28482
H         -0.83913       -1.07945       -0.79750
H          3.11081       -1.72628        1.48326
H          3.14301        0.84702       -1.95791
H          4.24970       -0.86671       -0.54614
H         -2.00560        2.70556       -2.86783
23
6140 phenylalanine
O         -0.12597        2.06290       -1.54533
O         -1.99423        1.36083       -2.62350
N         -1.76008       -0.70902       -0.56340
C         -0.60900        0.98120        0.79050
C         -1.66520        0.72410       -0.29570
C          0.75930        0.46120        0.41410
C          1.81234        0.62241        1.29931
C          0.93306       -0.16659       -0.80819
C         -1.30373        1.38911       -1.61274
C          3.07513        0.14236        0.95228
C          2.19595       -0.64676       -1.15506
C          3.26693       -0.49222       -0.27491
H         -0.91800        0.53780        1.74710
H         -0.51610        2.05890        0.98590
H         -2.65919        1.06870        0.01201
H          1.67447        1.11731        2.25630
H          0.10472       -0.29400       -1.49909
H         -2.04728       -1.19643        0.28482
H         -0.83913       -1.07945       -0.79750
H          3.90921        0.26299        1.63743
H          2.34535       -1.14153       -2.11039
H          4.25022       -0.86614       -0.54504
H          0.09434        2.49989       -2.39534
