23
6140 phenylalanine
O         -1.78739        0.70916       -2.68485
O         -0.62858        2.40475       -1.72159
N         -1.76008       -0.70902       -0.56340
C         -0.60900        0.98120        0.79050
C         -1.66520        0.72410       -0.29570
C          0.75930        0.46120        0.41410
C          1.62122        0.03776        1.41224
C          1.12407        0.41793       -0.92133
C         -1.30373        1.38911       -1.61274
C          2.88393       -0.44242        1.06509
C          2.38684       -0.06245       -1.26837
C          3.26673       -0.49253       -0.27521
H         -0.91800        0.53780        1.74710
H         -0.51610        2.05890        0.98590
H         -2.65919        1.06870        0.01201
H          1.33412        0.07492        2.45911
H          0.44492        0.74809       -1.70203
H         -2.04728       -1.19643        0.28482
H         -0.83913       -1.07945       -0.79750
H          3.56928       -0.77698        1.83843
H          2.68486       -0.10215       -2.31211
H          4.24993       -0.86658       -0.54550
H         -1.53933        1.13749       -3.53162
