23
6140 phenylalanine
O         -1.58669       -1.52969        0.50273
O         -2.13576       -1.22589       -1.67718
N         -2.96574        1.21538        0.15347
C         -0.60900        0.98120        0.79050
C         -1.66520        0.72410       -0.29570
C          0.75930        0.46120        0.41410
C          1.10818       -0.83552        0.75364
C          1.63702        1.29132       -0.26324
C         -1.83695       -0.75697       -0.58629
C          2.37078       -1.31572        0.40614
C          2.89962        0.81092       -0.61084
C          3.26650       -0.49250       -0.27610
H         -0.91800        0.53780        1.74710
H         -0.51610        2.05890        0.98590
H         -1.42251        1.24101       -1.23130
H          0.41926       -1.48404        1.28710
H          1.35954        2.30684       -0.53060
H         -2.91286        2.22023        0.31778
H         -3.20096        0.79927        1.05440
H          2.65666       -2.33054        0.66710
H          3.59704        1.45164       -1.14270
H          4.24960       -0.86650       -0.54680
H         -1.68727       -2.48490        0.30407
