23
6140 phenylalanine
O         -3.22435        2.53855       -0.29619
O         -3.87080        0.62298        0.73262
N         -1.28878        1.41790       -1.52511
C         -0.60900        0.98120        0.79050
C         -1.66520        0.72410       -0.29570
C          0.75930        0.46120        0.41410
C          1.36348       -0.49588        1.21251
C          1.38174        0.95156       -0.72186
C         -3.03276        1.25345        0.10063
C          2.62611       -0.97612        0.86519
C          2.64440        0.47110       -1.06918
C          3.26657       -0.49263       -0.27565
H         -0.91800        0.53780        1.74710
H         -0.51610        2.05890        0.98590
H         -1.75523       -0.34221       -0.53303
H          0.87468       -0.87724        2.10436
H          0.90422        1.70006       -1.34753
H         -0.39339        1.06137       -1.85780
H         -1.13834        2.40797       -1.33202
H          3.11081       -1.72628        1.48326
H          3.14301        0.84702       -1.95791
H          4.24970       -0.86671       -0.54614
H         -4.10421        2.87730       -0.02579
