23
6140 phenylalanine
O         -0.12597        2.06290       -1.54533
O         -1.99423        1.36083       -2.62350
N         -1.76008       -0.70902       -0.56340
C         -0.60900        0.98120        0.79050
C         -1.66520        0.72410       -0.29570
C          0.75930        0.46120        0.41410
C          1.81234        0.62241        1.29931
C          0.93306       -0.16659       -0.80819
C         -1.30373        1.38911       -1.61274
C          3.07513        0.14236        0.95228
C          2.19595       -0.64676       -1.15506
C          3.26693       -0.49222       -0.27491
H         -0.91800        0.53780        1.74710
H         -0.51610        2.05890        0.98590
H         -2.65919        1.06870        0.01201
H          1.67447        1.11731        2.25630
H          0.10472       -0.29400       -1.49909
H         -2.04728       -1.19643        0.28482
H         -0.83913       -1.07945       -0.79750
H          3.90921        0.26299        1.63743
H          2.34535       -1.14153       -2.11039
H          4.25022       -0.86614       -0.54504
H          0.09434        2.49989       -2.39534
