26
6322 arginine
O         -1.71978       -1.81823        0.17500
O          0.15300       -2.99686       -0.32613
N         -0.81215       -1.15207       -2.68963
N          1.70236        2.08283       -0.51753
N          2.66329        4.18950       -0.62021
N          1.10105        3.84279        1.00274
C         -0.76980        0.49290       -0.86970
C         -0.17130        0.87480        0.49210
C         -0.21110       -0.83782       -1.39583
C          1.34470        1.03260        0.43730
C         -0.54597       -2.00447       -0.48469
C          1.79362        3.28934       -0.05112
H         -0.56446        1.28299       -1.60171
H         -1.86124        0.42057       -0.77995
H         -0.59460        1.82110        0.84740
H         -0.41860        0.10880        1.23690
H          0.87726       -0.78281       -1.50549
H          1.71920        1.28008        1.43806
H          1.77971        0.07387        0.12998
H         -0.37119       -1.98402       -3.08048
H         -0.62275       -0.39667       -3.34738
H         -1.92723       -2.56961        0.77044
H          3.24508        3.92856       -1.40890
H          2.74979        5.13738       -0.27034
H          1.25597        4.80569        1.28159
H          0.41554        3.31864        1.53479
