26
6322 arginine
O         -2.46833        1.10060       -3.19149
O         -0.50403        1.00762       -4.32307
N         -1.05055        2.83332       -1.55050
N          1.96196       -0.22596        0.01585
N          3.80022       -1.63385        0.11905
N          3.91882        0.31110        1.30135
C         -0.76980        0.49290       -0.86970
C         -0.17130        0.87480        0.49210
C         -0.47944        1.54863       -1.94715
C          1.34470        1.03260        0.43730
C         -1.11575        1.20192       -3.28068
C          3.15245       -0.47209        0.46717
H         -1.85465        0.36361       -0.77685
H         -0.36184       -0.47505       -1.18776
H         -0.59460        1.82110        0.84740
H         -0.41860        0.10880        1.23690
H          0.59983        1.66193       -2.09524
H          1.59965        1.83815       -0.26207
H          1.69782        1.31438        1.43668
H         -0.77576        3.55259       -2.21869
H         -0.66095        3.11834       -0.65267
H         -2.87458        0.86625       -4.05301
H          3.36233       -2.31454       -0.49213
H          4.73109       -1.84520        0.46134
H          4.84435        0.01462        1.59192
H          3.59505        1.20512        1.65299
