26
6322 arginine
O         -2.22281       -1.93413       -0.06765
O         -3.46497       -0.48977        1.16462
N         -2.90908        1.59251       -0.38572
N          1.85621        1.39565        1.75985
N          3.69669        1.90747        3.07237
N          4.08948        1.44091        0.87628
C         -0.76980        0.49290       -0.86970
C         -0.17130        0.87480        0.49210
C         -2.29663        0.33541       -0.80828
C          1.34470        1.03260        0.43730
C         -2.72880       -0.70349        0.21020
C          3.13777        1.56382        1.86406
H         -0.32590       -0.44586       -1.22172
H         -0.51159        1.26182       -1.60903
H         -0.59460        1.82110        0.84740
H         -0.41860        0.10880        1.23690
H         -2.69463        0.04949       -1.78778
H          1.79439        0.09190        0.09690
H          1.58308        1.81640       -0.29186
H         -3.92427        1.51471       -0.43751
H         -2.64931        2.33468       -1.03444
H         -2.51291       -2.60456        0.58698
H          3.12155        2.03501        3.89794
H          4.69633        2.04381        3.17482
H          5.07179        1.59774        1.07481
H          3.85127        1.18991       -0.07661
