26
6322 arginine
O         -3.22259        0.96649       -2.91758
O         -3.06956       -1.25538       -2.48465
N         -2.64995       -0.71204        0.14667
N          1.70236        2.08283       -0.51753
N          1.76646        0.39233       -2.10187
N          2.23670        2.50322       -2.82144
C         -0.76980        0.49290       -0.86970
C         -0.17130        0.87480        0.49210
C         -2.29663        0.33541       -0.80828
C          1.34470        1.03260        0.43730
C         -2.88600       -0.09554       -2.13881
C          1.89635        1.71391       -1.74546
H         -0.32590       -0.44586       -1.22172
H         -0.51159        1.26182       -1.60903
H         -0.59460        1.82110        0.84740
H         -0.41860        0.10880        1.23690
H         -2.76958        1.27596       -0.50617
H          1.71920        1.28008        1.43806
H          1.77971        0.07387        0.12998
H         -3.66280       -0.74949        0.25661
H         -2.27470       -0.47834        1.06521
H         -3.61259        0.68372       -3.77204
H          1.51872       -0.31292       -1.41640
H          1.91410        0.08335       -3.05638
H          2.36382        2.10188       -3.74432
H          2.37032        3.50462       -2.73733
