26
6322 arginine
O         -0.07918        3.64840       -0.88152
O         -2.12589        3.33995       -1.81073
N          0.96339        1.70035       -2.11789
N          1.85621        1.39565        1.75985
N          3.40179        0.72951        3.35341
N          4.11086        0.79550        1.18832
C         -0.76980        0.49290       -0.86970
C         -0.17130        0.87480        0.49210
C         -0.47944        1.54863       -1.94715
C          1.34470        1.03260        0.43730
C         -1.00203        2.92137       -1.56525
C          3.05645        0.99993        2.05030
H         -1.85465        0.36361       -0.77685
H         -0.36184       -0.47505       -1.18776
H         -0.59460        1.82110        0.84740
H         -0.41860        0.10880        1.23690
H         -0.92902        1.25830       -2.90275
H          1.79439        0.09190        0.09690
H          1.58308        1.81640       -0.29186
H          1.15297        2.32945       -2.89740
H          1.37396        0.80288       -2.37306
H         -0.42449        4.53072       -0.62764
H          2.72962        0.83392        4.10567
H          4.33485        0.41928        3.60147
H          5.01278        0.48250        1.53111
H          4.02980        0.94521        0.18894
