26
6322 arginine
O         -2.74338        2.62653       -1.31425
O         -3.68869        1.78568        0.56909
N         -2.81204       -0.02701       -2.12621
N          1.70236        2.08283       -0.51753
N          1.55823        3.53833        1.28045
N          2.11366        4.43918       -0.73815
C         -0.76980        0.49290       -0.86970
C         -0.17130        0.87480        0.49210
C         -2.29663        0.33541       -0.80828
C          1.34470        1.03260        0.43730
C         -2.99490        1.62787       -0.42705
C          1.79362        3.28934       -0.05112
H         -0.32590       -0.44586       -1.22172
H         -0.51159        1.26182       -1.60903
H         -0.59460        1.82110        0.84740
H         -0.41860        0.10880        1.23690
H         -2.57585       -0.43785       -0.08462
H          1.71920        1.28008        1.43806
H          1.77971        0.07387        0.12998
H         -3.81031       -0.22392       -2.06261
H         -2.37299       -0.89210       -2.43923
H         -3.18800        3.46267       -1.05862
H          1.31060        2.78898        1.91745
H          1.62416        4.47443        1.66481
H          2.15519        5.33575       -0.26551
H          2.32031        4.43691       -1.73063
