26
6322 arginine
O          1.84800       -2.04720       -1.34761
O          1.97354        0.18220       -1.74957
N         -0.51699       -1.91196       -0.45424
N          1.85621        1.39565        1.75985
N          3.19167        3.01430        0.77572
N          2.57023        3.36178        2.94086
C         -0.76980        0.49290       -0.86970
C         -0.17130        0.87480        0.49210
C         -0.21110       -0.83782       -1.39583
C          1.34470        1.03260        0.43730
C          1.30058       -0.81630       -1.52904
C          2.48977        2.52338        1.85127
H         -0.56446        1.28299       -1.60171
H         -1.86124        0.42057       -0.77995
H         -0.59460        1.82110        0.84740
H         -0.41860        0.10880        1.23690
H         -0.64343       -1.07827       -2.37300
H          1.79439        0.09190        0.09690
H          1.58308        1.81640       -0.29186
H         -0.23023       -2.80710       -0.84902
H         -1.52572       -1.97259       -0.32033
H          2.82569       -2.02695       -1.42422
H          3.22684        2.50742       -0.10203
H          3.69384        3.89384        0.82675
H          3.09959        4.22596        2.89715
H          2.10827        3.15394        3.81900
