26
6322 arginine
O         -1.72534       -2.59232       -0.81820
O          0.13627       -2.37747        0.46080
N         -0.81215       -1.15207       -2.68963
N          1.70236        2.08283       -0.51753
N          3.83643        2.14494        0.38463
N          3.07583        4.05159       -0.60579
C         -0.76980        0.49290       -0.86970
C         -0.17130        0.87480        0.49210
C         -0.21110       -0.83782       -1.39583
C          1.34470        1.03260        0.43730
C         -0.54597       -2.00447       -0.48469
C          2.79069        2.74523       -0.27610
H         -0.56446        1.28299       -1.60171
H         -1.86124        0.42057       -0.77995
H         -0.59460        1.82110        0.84740
H         -0.41860        0.10880        1.23690
H          0.87726       -0.78281       -1.50549
H          1.71920        1.28008        1.43806
H          1.77971        0.07387        0.12998
H         -0.37119       -1.98402       -3.08048
H         -0.62275       -0.39667       -3.34738
H         -1.94301       -3.33907       -0.22059
H          3.77638        1.18068        0.69319
H          4.69570        2.64549        0.58330
H          3.96825        4.46866       -0.36373
H          2.41556        4.64177       -1.09922
