26
6322 arginine
O         -2.27740        3.12032       -1.99136
O         -0.36287        3.77599       -0.96555
N          0.96339        1.70035       -2.11789
N          1.85621        1.39565        1.75985
N          3.18668        0.58343        3.47513
N          1.64676       -0.84727        2.59394
C         -0.76980        0.49290       -0.86970
C         -0.17130        0.87480        0.49210
C         -0.47944        1.54863       -1.94715
C          1.34470        1.03260        0.43730
C         -1.00203        2.92137       -1.56525
C          2.18629        0.41892        2.54634
H         -1.85465        0.36361       -0.77685
H         -0.36184       -0.47505       -1.18776
H         -0.59460        1.82110        0.84740
H         -0.41860        0.10880        1.23690
H         -0.92902        1.25830       -2.90275
H          1.79439        0.09190        0.09690
H          1.58308        1.81640       -0.29186
H          1.15297        2.32945       -2.89740
H          1.37396        0.80288       -2.37306
H         -2.60757        4.01232       -1.75160
H          3.68121        1.46468        3.56148
H          3.45994       -0.16776        4.09915
H          1.98744       -1.53577        3.25639
H          0.89558       -1.13899        1.97882
