26
6322 arginine
O         -2.26117        0.48559       -3.13044
O         -0.65922        1.49937       -4.37687
N         -1.05055        2.83332       -1.55050
N          1.70236        2.08283       -0.51753
N          3.35403        0.70539       -1.38164
N          2.47656        2.27374       -2.78346
C         -0.76980        0.49290       -0.86970
C         -0.17130        0.87480        0.49210
C         -0.47944        1.54863       -1.94715
C          1.34470        1.03260        0.43730
C         -1.11575        1.20192       -3.28068
C          2.45030        1.73270       -1.51729
H         -1.85465        0.36361       -0.77685
H         -0.36184       -0.47505       -1.18776
H         -0.59460        1.82110        0.84740
H         -0.41860        0.10880        1.23690
H          0.59983        1.66193       -2.09524
H          1.71920        1.28008        1.43806
H          1.77971        0.07387        0.12998
H         -0.77576        3.55259       -2.21869
H         -0.66095        3.11834       -0.65267
H         -2.66353        0.25475       -3.99472
H          3.45181        0.20652       -0.50403
H          3.94816        0.41648       -2.15098
H          3.10908        1.91627       -3.49133
H          1.87159        3.03971       -3.05740
