26
6322 arginine
O         -3.71744        1.50104        0.71731
O         -2.94876        2.66880       -1.06960
N         -2.81204       -0.02701       -2.12621
N          1.70236        2.08283       -0.51753
N          0.45245        3.50024        0.82435
N          1.43250        4.41669       -1.01803
C         -0.76980        0.49290       -0.86970
C         -0.17130        0.87480        0.49210
C         -2.29663        0.33541       -0.80828
C          1.34470        1.03260        0.43730
C         -2.99490        1.62787       -0.42705
C          1.23967        3.27055       -0.27929
H         -0.32590       -0.44586       -1.22172
H         -0.51159        1.26182       -1.60903
H         -0.59460        1.82110        0.84740
H         -0.41860        0.10880        1.23690
H         -2.57585       -0.43785       -0.08462
H          1.71920        1.28008        1.43806
H          1.77971        0.07387        0.12998
H         -3.81031       -0.22392       -2.06261
H         -2.37299       -0.89210       -2.43923
H         -4.17537        2.33545        0.95443
H          0.22070        2.75091        1.46731
H          0.08065        4.42140        1.02831
H          1.01779        5.29760       -0.73351
H          1.99105        4.42780       -1.86399
