26
6322 arginine
O         -0.85612        2.13879       -4.23071
O         -1.80586        0.21393       -3.49552
N         -1.05055        2.83332       -1.55050
N          1.70236        2.08283       -0.51753
N          3.24418        3.78070       -0.85227
N          2.30508        3.62931        1.21895
C         -0.76980        0.49290       -0.86970
C         -0.17130        0.87480        0.49210
C         -0.47944        1.54863       -1.94715
C          1.34470        1.03260        0.43730
C         -1.11575        1.20192       -3.28068
C          2.36133        3.09706       -0.04996
H         -1.85465        0.36361       -0.77685
H         -0.36184       -0.47505       -1.18776
H         -0.59460        1.82110        0.84740
H         -0.41860        0.10880        1.23690
H          0.59983        1.66193       -2.09524
H          1.71920        1.28008        1.43806
H          1.77971        0.07387        0.12998
H         -0.77576        3.55259       -2.21869
H         -0.66095        3.11834       -0.65267
H         -1.27772        1.91618       -5.08795
H          3.39535        3.50643       -1.81692
H          3.76924        4.57609       -0.50584
H          2.87124        4.43118        1.47471
H          1.70217        3.24836        1.93944
