26
6322 arginine
O         -1.88710       -2.17547       -0.34391
O          0.27550       -2.70908        0.08736
N         -0.81215       -1.15207       -2.68963
N          1.85621        1.39565        1.75985
N          2.04928       -0.88423        2.12979
N          2.68898        0.49710        3.82610
C         -0.76980        0.49290       -0.86970
C         -0.17130        0.87480        0.49210
C         -0.21110       -0.83782       -1.39583
C          1.34470        1.03260        0.43730
C         -0.54597       -2.00447       -0.48469
C          2.18629        0.41892        2.54634
H         -0.56446        1.28299       -1.60171
H         -1.86124        0.42057       -0.77995
H         -0.59460        1.82110        0.84740
H         -0.41860        0.10880        1.23690
H          0.87726       -0.78281       -1.50549
H          1.79439        0.09190        0.09690
H          1.58308        1.81640       -0.29186
H         -0.37119       -1.98402       -3.08048
H         -0.62275       -0.39667       -3.34738
H         -2.09908       -2.92378        0.25381
H          1.69014       -1.10398        1.20710
H          2.30140       -1.66214        2.72950
H          2.91299       -0.34116        4.35153
H          2.85572        1.38353        4.28889
