26
6322 arginine
O          1.58132        0.55560       -2.63415
O          1.64133        2.74510       -2.04246
N         -1.06947        1.13639       -3.21831
N          1.96196       -0.22596        0.01585
N          3.72141       -1.27474       -1.06877
N          3.76228        1.00286       -0.99368
C         -0.76980        0.49290       -0.86970
C         -0.17130        0.87480        0.49210
C         -0.47944        1.54863       -1.94715
C          1.34470        1.03260        0.43730
C          1.00654        1.71177       -2.20918
C          3.07771       -0.13829       -0.63909
H         -1.85465        0.36361       -0.77685
H         -0.36184       -0.47505       -1.18776
H         -0.59460        1.82110        0.84740
H         -0.41860        0.10880        1.23690
H         -0.89038        2.52096       -1.65513
H          1.59965        1.83815       -0.26207
H          1.69782        1.31438        1.43668
H         -0.95832        1.88056       -3.90621
H         -2.07390        1.00617       -3.10303
H          2.54344        0.66272       -2.79233
H          3.33868       -2.19534       -0.88272
H          4.59473       -1.22780       -1.58207
H          4.63373        0.95011       -1.51013
H          3.42709        1.93024       -0.75838
