26
6322 arginine
O         -1.71978       -1.81823        0.17500
O          0.15300       -2.99686       -0.32613
N         -0.81215       -1.15207       -2.68963
N          1.70236        2.08283       -0.51753
N          2.22217        4.33907       -0.62312
N          3.24126        3.11774        1.00923
C         -0.76980        0.49290       -0.86970
C         -0.17130        0.87480        0.49210
C         -0.21110       -0.83782       -1.39583
C          1.34470        1.03260        0.43730
C         -0.54597       -2.00447       -0.48469
C          2.36133        3.09706       -0.04996
H         -0.56446        1.28299       -1.60171
H         -1.86124        0.42057       -0.77995
H         -0.59460        1.82110        0.84740
H         -0.41860        0.10880        1.23690
H          0.87726       -0.78281       -1.50549
H          1.71920        1.28008        1.43806
H          1.77971        0.07387        0.12998
H         -0.37119       -1.98402       -3.08048
H         -0.62275       -0.39667       -3.34738
H         -1.92723       -2.56961        0.77044
H          1.60663        4.48381       -1.41607
H          2.72859        5.14476       -0.27273
H          3.70308        3.97675        1.28809
H          3.45925        2.28716        1.54808
