26
6322 arginine
O         -0.19239        1.06937       -4.26938
O         -2.31764        1.07466       -3.47510
N         -1.05055        2.83332       -1.55050
N          1.96196       -0.22596        0.01585
N          4.01731        0.56707        0.73602
N          4.03469       -0.99490       -0.92371
C         -0.76980        0.49290       -0.86970
C         -0.17130        0.87480        0.49210
C         -0.47944        1.54863       -1.94715
C          1.34470        1.03260        0.43730
C         -1.11575        1.20192       -3.28068
C          3.25539       -0.23981       -0.07571
H         -1.85465        0.36361       -0.77685
H         -0.36184       -0.47505       -1.18776
H         -0.59460        1.82110        0.84740
H         -0.41860        0.10880        1.23690
H          0.59983        1.66193       -2.09524
H          1.59965        1.83815       -0.26207
H          1.69782        1.31438        1.43668
H         -0.77576        3.55259       -2.21869
H         -0.66095        3.11834       -0.65267
H         -0.60860        0.85559       -5.13148
H          3.58527        1.18333        1.41586
H          5.02983        0.57128        0.67998
H          5.04632       -0.92228       -0.90716
H          3.63518       -1.64727       -1.58896
