26
6322 arginine
O         -1.99409        2.15440       -3.69177
O         -0.89906        0.18042       -3.91950
N         -1.05055        2.83332       -1.55050
N          1.96196       -0.22596        0.01585
N          3.32341        0.95573       -1.44089
N          2.87119       -1.21301       -1.97646
C         -0.76980        0.49290       -0.86970
C         -0.17130        0.87480        0.49210
C         -0.47944        1.54863       -1.94715
C          1.34470        1.03260        0.43730
C         -1.11575        1.20192       -3.28068
C          2.66703       -0.19474       -1.07201
H         -1.85465        0.36361       -0.77685
H         -0.36184       -0.47505       -1.18776
H         -0.59460        1.82110        0.84740
H         -0.41860        0.10880        1.23690
H          0.59983        1.66193       -2.09524
H          1.59965        1.83815       -0.26207
H          1.69782        1.31438        1.43668
H         -0.77576        3.55259       -2.21869
H         -0.66095        3.11834       -0.65267
H         -2.41071        1.92151       -4.54871
H          3.26854        1.79467       -0.87363
H          3.87956        1.00090       -2.28766
H          3.44700       -1.07291       -2.79972
H          2.46188       -2.13281       -1.85743
