26
6322 arginine
O         -2.81815       -1.94642       -0.33280
O         -2.99482       -0.47183        1.38242
N         -2.90908        1.59251       -0.38572
N          1.85621        1.39565        1.75985
N          3.80962        2.01476        2.84287
N          3.35180        3.04797        0.86357
C         -0.76980        0.49290       -0.86970
C         -0.17130        0.87480        0.49210
C         -2.29663        0.33541       -0.80828
C          1.34470        1.03260        0.43730
C         -2.72880       -0.70349        0.21020
C          2.93035        2.12145        1.79121
H         -0.32590       -0.44586       -1.22172
H         -0.51159        1.26182       -1.60903
H         -0.59460        1.82110        0.84740
H         -0.41860        0.10880        1.23690
H         -2.69463        0.04949       -1.78778
H          1.79439        0.09190        0.09690
H          1.58308        1.81640       -0.29186
H         -3.92427        1.51471       -0.43751
H         -2.64931        2.33468       -1.03444
H         -3.10770       -2.61284        0.32615
H          3.63566        1.37171        3.60763
H          4.65486        2.57335        2.88639
H          4.21693        3.56133        0.99375
H          2.82324        3.25095        0.02264
