26
6322 arginine
O         -1.72534       -2.59232       -0.81820
O          0.13627       -2.37747        0.46080
N         -0.81215       -1.15207       -2.68963
N          1.70236        2.08283       -0.51753
N          3.35403        0.70539       -1.38164
N          2.47656        2.27374       -2.78346
C         -0.76980        0.49290       -0.86970
C         -0.17130        0.87480        0.49210
C         -0.21110       -0.83782       -1.39583
C          1.34470        1.03260        0.43730
C         -0.54597       -2.00447       -0.48469
C          2.45030        1.73270       -1.51729
H         -0.56446        1.28299       -1.60171
H         -1.86124        0.42057       -0.77995
H         -0.59460        1.82110        0.84740
H         -0.41860        0.10880        1.23690
H          0.87726       -0.78281       -1.50549
H          1.71920        1.28008        1.43806
H          1.77971        0.07387        0.12998
H         -0.37119       -1.98402       -3.08048
H         -0.62275       -0.39667       -3.34738
H         -1.94301       -3.33907       -0.22059
H          3.45181        0.20652       -0.50403
H          3.94816        0.41648       -2.15098
H          3.10908        1.91627       -3.49133
H          1.87159        3.03971       -3.05740
