26
6322 arginine
O         -0.66447       -3.17203       -1.17059
O         -0.71799       -1.92611        0.72477
N         -0.81215       -1.15207       -2.68963
N          1.70236        2.08283       -0.51753
N          0.03143        3.42406        0.36626
N          0.62010        3.79904       -1.80344
C         -0.76980        0.49290       -0.86970
C         -0.17130        0.87480        0.49210
C         -0.21110       -0.83782       -1.39583
C          1.34470        1.03260        0.43730
C         -0.54597       -2.00447       -0.48469
C          0.84791        3.04573       -0.67331
H         -0.56446        1.28299       -1.60171
H         -1.86124        0.42057       -0.77995
H         -0.59460        1.82110        0.84740
H         -0.41860        0.10880        1.23690
H          0.87726       -0.78281       -1.50549
H          1.71920        1.28008        1.43806
H          1.77971        0.07387        0.12998
H         -0.37119       -1.98402       -3.08048
H         -0.62275       -0.39667       -3.34738
H         -0.89110       -3.92138       -0.57958
H          0.08174        2.96057        1.26696
H         -0.64334        4.17424        0.26489
H         -0.08040        4.53266       -1.80987
H          1.13747        3.65503       -2.66328
