26
6322 arginine
O         -2.81815       -1.94642       -0.33280
O         -2.99482       -0.47183        1.38242
N         -2.90908        1.59251       -0.38572
N          1.96196       -0.22596        0.01585
N          1.56161       -1.10211        2.12394
N          3.30987       -1.97913        0.95382
C         -0.76980        0.49290       -0.86970
C         -0.17130        0.87480        0.49210
C         -2.29663        0.33541       -0.80828
C          1.34470        1.03260        0.43730
C         -2.72880       -0.70349        0.21020
C          2.28284       -1.06163        0.95404
H         -0.32590       -0.44586       -1.22172
H         -0.51159        1.26182       -1.60903
H         -0.59460        1.82110        0.84740
H         -0.41860        0.10880        1.23690
H         -2.69463        0.04949       -1.78778
H          1.59965        1.83815       -0.26207
H          1.69782        1.31438        1.43668
H         -3.92427        1.51471       -0.43751
H         -2.64931        2.33468       -1.03444
H         -3.10770       -2.61284        0.32615
H          0.77169       -0.48387        2.27372
H          1.79634       -1.74789        2.86975
H          3.46810       -2.58639        1.75078
H          3.94028       -2.08567        0.16708
