26
6322 arginine
O         -4.23680        1.71877       -0.97214
O         -2.51005        2.51128        0.26796
N         -2.81204       -0.02701       -2.12621
N          1.85621        1.39565        1.75985
N          2.17024        3.56858        1.01704
N          3.50592        2.85401        2.72001
C         -0.76980        0.49290       -0.86970
C         -0.17130        0.87480        0.49210
C         -2.29663        0.33541       -0.80828
C          1.34470        1.03260        0.43730
C         -2.99490        1.62787       -0.42705
C          2.48977        2.52338        1.85127
H         -0.32590       -0.44586       -1.22172
H         -0.51159        1.26182       -1.60903
H         -0.59460        1.82110        0.84740
H         -0.41860        0.10880        1.23690
H         -2.57585       -0.43785       -0.08462
H          1.79439        0.09190        0.09690
H          1.58308        1.81640       -0.29186
H         -3.81031       -0.22392       -2.06261
H         -2.37299       -0.89210       -2.43923
H         -4.68041        2.55998       -0.73182
H          1.43908        3.47756        0.32009
H          2.65373        4.45827        1.07223
H          3.93094        3.77484        2.70061
H          3.86484        2.20050        3.40691
