26
6322 arginine
O         -3.85846        2.04637       -1.38978
O         -2.80338        2.25245        0.60820
N         -2.81204       -0.02701       -2.12621
N          1.85621        1.39565        1.75985
N          0.14227        2.94097        1.97524
N          1.00316        2.07559        3.90001
C         -0.76980        0.49290       -0.86970
C         -0.17130        0.87480        0.49210
C         -2.29663        0.33541       -0.80828
C          1.34470        1.03260        0.43730
C         -2.99490        1.62787       -0.42705
C          1.06392        2.08092        2.52419
H         -0.32590       -0.44586       -1.22172
H         -0.51159        1.26182       -1.60903
H         -0.59460        1.82110        0.84740
H         -0.41860        0.10880        1.23690
H         -2.57585       -0.43785       -0.08462
H          1.79439        0.09190        0.09690
H          1.58308        1.81640       -0.29186
H         -3.81031       -0.22392       -2.06261
H         -2.37299       -0.89210       -2.43923
H         -4.29977        2.88721       -1.14402
H          0.06576        3.05463        0.97033
H         -0.48610        3.48592        2.55536
H          0.33725        2.65840        4.39582
H          1.61160        1.49529        4.46640
