26
6322 arginine
O         -4.34549        1.48362       -0.37400
O         -2.43341        2.69401       -0.21114
N         -2.81204       -0.02701       -2.12621
N          1.96196       -0.22596        0.01585
N          2.86560       -2.26685        0.64049
N          2.11568       -0.91196        2.31281
C         -0.76980        0.49290       -0.86970
C         -0.17130        0.87480        0.49210
C         -2.29663        0.33541       -0.80828
C          1.34470        1.03260        0.43730
C         -2.99490        1.62787       -0.42705
C          2.28284       -1.06163        0.95404
H         -0.32590       -0.44586       -1.22172
H         -0.51159        1.26182       -1.60903
H         -0.59460        1.82110        0.84740
H         -0.41860        0.10880        1.23690
H         -2.57585       -0.43785       -0.08462
H          1.59965        1.83815       -0.26207
H          1.69782        1.31438        1.43668
H         -3.81031       -0.22392       -2.06261
H         -2.37299       -0.89210       -2.43923
H         -4.79345        2.32360       -0.13749
H          3.05359       -2.52269       -0.32275
H          3.12376       -2.93416        1.35911
H          2.40656       -1.63851        2.95814
H          1.70268       -0.07995        2.71893
