26
6322 arginine
O         -1.22096       -0.14086       -3.46392
O         -1.47824        2.01566       -4.12029
N         -1.05055        2.83332       -1.55050
N          1.85621        1.39565        1.75985
N          3.18668        0.58343        3.47513
N          1.64676       -0.84727        2.59394
C         -0.76980        0.49290       -0.86970
C         -0.17130        0.87480        0.49210
C         -0.47944        1.54863       -1.94715
C          1.34470        1.03260        0.43730
C         -1.11575        1.20192       -3.28068
C          2.18629        0.41892        2.54634
H         -1.85465        0.36361       -0.77685
H         -0.36184       -0.47505       -1.18776
H         -0.59460        1.82110        0.84740
H         -0.41860        0.10880        1.23690
H          0.59983        1.66193       -2.09524
H          1.79439        0.09190        0.09690
H          1.58308        1.81640       -0.29186
H         -0.77576        3.55259       -2.21869
H         -0.66095        3.11834       -0.65267
H         -1.62309       -0.36067       -4.33118
H          3.68121        1.46468        3.56148
H          3.45994       -0.16776        4.09915
H          1.98744       -1.53577        3.25639
H          0.89558       -1.13899        1.97882
