26
6322 arginine
O         -3.22259        0.96649       -2.91758
O         -3.06956       -1.25538       -2.48465
N         -2.64995       -0.71204        0.14667
N          1.96196       -0.22596        0.01585
N          3.06885       -0.17432        2.05156
N          3.49991       -1.94599        0.68403
C         -0.76980        0.49290       -0.86970
C         -0.17130        0.87480        0.49210
C         -2.29663        0.33541       -0.80828
C          1.34470        1.03260        0.43730
C         -2.88600       -0.09554       -2.13881
C          2.79647       -0.77290        0.84408
H         -0.32590       -0.44586       -1.22172
H         -0.51159        1.26182       -1.60903
H         -0.59460        1.82110        0.84740
H         -0.41860        0.10880        1.23690
H         -2.76958        1.27596       -0.50617
H          1.59965        1.83815       -0.26207
H          1.69782        1.31438        1.43668
H         -3.66280       -0.74949        0.25661
H         -2.27470       -0.47834        1.06521
H         -3.61259        0.68372       -3.77204
H          2.62583        0.69925        2.31466
H          3.71830       -0.58556        2.71296
H          4.13048       -2.27959        1.40516
H          3.41616       -2.51798       -0.14877
