26
6322 arginine
O         -3.85846        2.04637       -1.38978
O         -2.80338        2.25245        0.60820
N         -2.81204       -0.02701       -2.12621
N          1.70236        2.08283       -0.51753
N          2.17099        3.50230        1.25376
N          1.55235        4.47223       -0.71380
C         -0.76980        0.49290       -0.86970
C         -0.17130        0.87480        0.49210
C         -2.29663        0.33541       -0.80828
C          1.34470        1.03260        0.43730
C         -2.99490        1.62787       -0.42705
C          1.79362        3.28934       -0.05112
H         -0.32590       -0.44586       -1.22172
H         -0.51159        1.26182       -1.60903
H         -0.59460        1.82110        0.84740
H         -0.41860        0.10880        1.23690
H         -2.57585       -0.43785       -0.08462
H          1.71920        1.28008        1.43806
H          1.77971        0.07387        0.12998
H         -3.81031       -0.22392       -2.06261
H         -2.37299       -0.89210       -2.43923
H         -4.29977        2.88721       -1.14402
H          2.38306        2.72588        1.87086
H          2.24810        4.43770        1.63775
H          1.65645        5.36505       -0.24373
H          1.26676        4.49939       -1.68614
