26
6322 arginine
O         -1.27782       -2.95709       -1.12079
O         -0.22737       -2.09088        0.69410
N         -0.81215       -1.15207       -2.68963
N          1.85621        1.39565        1.75985
N          3.86913        2.00881        0.78814
N          3.93147        1.34848        2.96870
C         -0.76980        0.49290       -0.86970
C         -0.17130        0.87480        0.49210
C         -0.21110       -0.83782       -1.39583
C          1.34470        1.03260        0.43730
C         -0.54597       -2.00447       -0.48469
C          3.13777        1.56382        1.86406
H         -0.56446        1.28299       -1.60171
H         -1.86124        0.42057       -0.77995
H         -0.59460        1.82110        0.84740
H         -0.41860        0.10880        1.23690
H          0.87726       -0.78281       -1.50549
H          1.79439        0.09190        0.09690
H          1.58308        1.81640       -0.29186
H         -0.37119       -1.98402       -3.08048
H         -0.62275       -0.39667       -3.34738
H         -1.50086       -3.70422       -0.52563
H          3.42341        2.21192       -0.09995
H          4.87197        2.14654        0.84889
H          4.93147        1.51502        2.93399
H          3.55406        1.02117        3.85085
