26
6322 arginine
O         -3.31183        2.37863       -1.51500
O         -3.23479        1.98686        0.71843
N         -2.81204       -0.02701       -2.12621
N          1.70236        2.08283       -0.51753
N          3.21572        2.93399        1.01781
N          3.64445        3.32870       -1.18563
C         -0.76980        0.49290       -0.86970
C         -0.17130        0.87480        0.49210
C         -2.29663        0.33541       -0.80828
C          1.34470        1.03260        0.43730
C         -2.99490        1.62787       -0.42705
C          2.79069        2.74523       -0.27610
H         -0.32590       -0.44586       -1.22172
H         -0.51159        1.26182       -1.60903
H         -0.59460        1.82110        0.84740
H         -0.41860        0.10880        1.23690
H         -2.57585       -0.43785       -0.08462
H          1.71920        1.28008        1.43806
H          1.77971        0.07387        0.12998
H         -3.81031       -0.22392       -2.06261
H         -2.37299       -0.89210       -2.43923
H         -3.75351        3.21762       -1.26363
H          2.68997        2.56180        1.80119
H          4.06362        3.44907        1.22784
H          4.47344        3.82650       -0.87919
H          3.48317        3.28359       -2.18548
