26
6322 arginine
O         -2.46833        1.10060       -3.19149
O         -0.50403        1.00762       -4.32307
N         -1.05055        2.83332       -1.55050
N          1.96196       -0.22596        0.01585
N          2.76538       -1.31179       -1.86763
N          3.38203        0.86423       -1.58577
C         -0.76980        0.49290       -0.86970
C         -0.17130        0.87480        0.49210
C         -0.47944        1.54863       -1.94715
C          1.34470        1.03260        0.43730
C         -1.11575        1.20192       -3.28068
C          2.66703       -0.19474       -1.07201
H         -1.85465        0.36361       -0.77685
H         -0.36184       -0.47505       -1.18776
H         -0.59460        1.82110        0.84740
H         -0.41860        0.10880        1.23690
H          0.59983        1.66193       -2.09524
H          1.59965        1.83815       -0.26207
H          1.69782        1.31438        1.43668
H         -0.77576        3.55259       -2.21869
H         -0.66095        3.11834       -0.65267
H         -2.87458        0.86625       -4.05301
H          2.29227       -2.17411       -1.62026
H          3.31174       -1.30815       -2.72194
H          3.90139        0.77261       -2.45226
H          3.41666        1.76744       -1.12670
