26
6322 arginine
O         -3.78023        0.80840       -2.61936
O         -2.62228       -1.14008       -2.72012
N         -2.64995       -0.71204        0.14667
N          1.70236        2.08283       -0.51753
N          2.90995        4.05459       -0.67839
N          3.92436        2.30243        0.36833
C         -0.76980        0.49290       -0.86970
C         -0.17130        0.87480        0.49210
C         -2.29663        0.33541       -0.80828
C          1.34470        1.03260        0.43730
C         -2.88600       -0.09554       -2.13881
C          2.79069        2.74523       -0.27610
H         -0.32590       -0.44586       -1.22172
H         -0.51159        1.26182       -1.60903
H         -0.59460        1.82110        0.84740
H         -0.41860        0.10880        1.23690
H         -2.76958        1.27596       -0.50617
H          1.71920        1.28008        1.43806
H          1.77971        0.07387        0.12998
H         -3.66280       -0.74949        0.25661
H         -2.27470       -0.47834        1.06521
H         -4.16637        0.52115       -3.47408
H          2.15502        4.52282       -1.16774
H          3.75249        4.58984       -0.49954
H          4.72243        2.91427        0.50128
H          4.00628        1.36024        0.73347
