26
6322 arginine
O         -2.10498        2.84734       -0.77421
O         -0.52012        3.98510       -1.93236
N          0.96339        1.70035       -2.11789
N          1.96196       -0.22596        0.01585
N          0.97792       -1.14918        1.90034
N          2.21251       -2.54537        0.58839
C         -0.76980        0.49290       -0.86970
C         -0.17130        0.87480        0.49210
C         -0.47944        1.54863       -1.94715
C          1.34470        1.03260        0.43730
C         -1.00203        2.92137       -1.56525
C          1.74919       -1.26092        0.76758
H         -1.85465        0.36361       -0.77685
H         -0.36184       -0.47505       -1.18776
H         -0.59460        1.82110        0.84740
H         -0.41860        0.10880        1.23690
H         -0.92902        1.25830       -2.90275
H          1.59965        1.83815       -0.26207
H          1.69782        1.31438        1.43668
H          1.15297        2.32945       -2.89740
H          1.37396        0.80288       -2.37306
H         -2.44552        3.73646       -0.53830
H          0.56460       -0.26223        2.16697
H          0.79976       -1.94616        2.50154
H          1.98041       -3.28113        1.24697
H          2.79493       -2.80568       -0.19950
