26
6322 arginine
O          1.72515        0.14886       -2.38689
O          2.06816       -1.58211       -0.96082
N         -0.51699       -1.91196       -0.45424
N          1.85621        1.39565        1.75985
N          3.18668        0.58343        3.47513
N          1.64676       -0.84727        2.59394
C         -0.76980        0.49290       -0.86970
C         -0.17130        0.87480        0.49210
C         -0.21110       -0.83782       -1.39583
C          1.34470        1.03260        0.43730
C          1.30058       -0.81630       -1.52904
C          2.18629        0.41892        2.54634
H         -0.56446        1.28299       -1.60171
H         -1.86124        0.42057       -0.77995
H         -0.59460        1.82110        0.84740
H         -0.41860        0.10880        1.23690
H         -0.64343       -1.07827       -2.37300
H          1.79439        0.09190        0.09690
H          1.58308        1.81640       -0.29186
H         -0.23023       -2.80710       -0.84902
H         -1.52572       -1.97259       -0.32033
H          2.70180        0.15252       -2.47804
H          3.68121        1.46468        3.56148
H          3.45994       -0.16776        4.09915
H          1.98744       -1.53577        3.25639
H          0.89558       -1.13899        1.97882
