26
6322 arginine
O         -1.80460        0.03118       -3.23016
O         -1.01581        1.86834       -4.30265
N         -1.05055        2.83332       -1.55050
N          1.70236        2.08283       -0.51753
N          2.82899        2.66020       -2.45901
N          2.95782        0.48325       -1.79638
C         -0.76980        0.49290       -0.86970
C         -0.17130        0.87480        0.49210
C         -0.47944        1.54863       -1.94715
C          1.34470        1.03260        0.43730
C         -1.11575        1.20192       -3.28068
C          2.45030        1.73270       -1.51729
H         -1.85465        0.36361       -0.77685
H         -0.36184       -0.47505       -1.18776
H         -0.59460        1.82110        0.84740
H         -0.41860        0.10880        1.23690
H          0.59983        1.66193       -2.09524
H          1.71920        1.28008        1.43806
H          1.77971        0.07387        0.12998
H         -0.77576        3.55259       -2.21869
H         -0.66095        3.11834       -0.65267
H         -2.20546       -0.19434       -4.09654
H          2.53253        3.62764       -2.38986
H          3.41318        2.40675       -3.24822
H          3.53622        0.32510       -2.61453
H          2.77863       -0.31871       -1.20268
