26
6322 arginine
O         -3.71744        1.50104        0.71731
O         -2.94876        2.66880       -1.06960
N         -2.81204       -0.02701       -2.12621
N          1.70236        2.08283       -0.51753
N          1.62757        2.57815       -2.78051
N          2.36433        0.50098       -2.19974
C         -0.76980        0.49290       -0.86970
C         -0.17130        0.87480        0.49210
C         -2.29663        0.33541       -0.80828
C          1.34470        1.03260        0.43730
C         -2.99490        1.62787       -0.42705
C          1.89635        1.71391       -1.74546
H         -0.32590       -0.44586       -1.22172
H         -0.51159        1.26182       -1.60903
H         -0.59460        1.82110        0.84740
H         -0.41860        0.10880        1.23690
H         -2.57585       -0.43785       -0.08462
H          1.71920        1.28008        1.43806
H          1.77971        0.07387        0.12998
H         -3.81031       -0.22392       -2.06261
H         -2.37299       -0.89210       -2.43923
H         -4.17537        2.33545        0.95443
H          1.27516        3.51269       -2.60422
H          1.77221        2.30901       -3.74746
H          2.47664        0.32276       -3.19199
H          2.61460       -0.25290       -1.56985
