26
6322 arginine
O         -1.27782       -2.95709       -1.12079
O         -0.22737       -2.09088        0.69410
N         -0.81215       -1.15207       -2.68963
N          1.96196       -0.22596        0.01585
N          3.53800        0.00781        1.69914
N          3.07016       -2.11274        1.00692
C         -0.76980        0.49290       -0.86970
C         -0.17130        0.87480        0.49210
C         -0.21110       -0.83782       -1.39583
C          1.34470        1.03260        0.43730
C         -0.54597       -2.00447       -0.48469
C          2.79647       -0.77290        0.84408
H         -0.56446        1.28299       -1.60171
H         -1.86124        0.42057       -0.77995
H         -0.59460        1.82110        0.84740
H         -0.41860        0.10880        1.23690
H          0.87726       -0.78281       -1.50549
H          1.59965        1.83815       -0.26207
H          1.69782        1.31438        1.43668
H         -0.37119       -1.98402       -3.08048
H         -0.62275       -0.39667       -3.34738
H         -1.50086       -3.70422       -0.52563
H          3.44694        1.01792        1.69777
H          4.19601       -0.40021        2.35404
H          3.74862       -2.42789        1.69197
H          2.60963       -2.82985        0.45792
