26
6322 arginine
O         -2.74338        2.62653       -1.31425
O         -3.68869        1.78568        0.56909
N         -2.81204       -0.02701       -2.12621
N          1.85621        1.39565        1.75985
N          3.48749        2.68536        2.78337
N          2.29956        3.66293        1.10172
C         -0.76980        0.49290       -0.86970
C         -0.17130        0.87480        0.49210
C         -2.29663        0.33541       -0.80828
C          1.34470        1.03260        0.43730
C         -2.99490        1.62787       -0.42705
C          2.48977        2.52338        1.85127
H         -0.32590       -0.44586       -1.22172
H         -0.51159        1.26182       -1.60903
H         -0.59460        1.82110        0.84740
H         -0.41860        0.10880        1.23690
H         -2.57585       -0.43785       -0.08462
H          1.79439        0.09190        0.09690
H          1.58308        1.81640       -0.29186
H         -3.81031       -0.22392       -2.06261
H         -2.37299       -0.89210       -2.43923
H         -3.18800        3.46267       -1.05862
H          3.74422        1.93190        3.41186
H          3.99469        3.55909        2.87113
H          2.85863        4.49379        1.26311
H          1.60396        3.71715        0.36623
