26
6322 arginine
O         -2.22402        2.40879        0.37520
O         -4.12739        1.94320       -0.76847
N         -2.81204       -0.02701       -2.12621
N          1.70236        2.08283       -0.51753
N          2.66329        4.18950       -0.62021
N          1.10105        3.84279        1.00274
C         -0.76980        0.49290       -0.86970
C         -0.17130        0.87480        0.49210
C         -2.29663        0.33541       -0.80828
C          1.34470        1.03260        0.43730
C         -2.99490        1.62787       -0.42705
C          1.79362        3.28934       -0.05112
H         -0.32590       -0.44586       -1.22172
H         -0.51159        1.26182       -1.60903
H         -0.59460        1.82110        0.84740
H         -0.41860        0.10880        1.23690
H         -2.57585       -0.43785       -0.08462
H          1.71920        1.28008        1.43806
H          1.77971        0.07387        0.12998
H         -3.81031       -0.22392       -2.06261
H         -2.37299       -0.89210       -2.43923
H         -2.68296        3.23814        0.62764
H          3.24508        3.92856       -1.40890
H          2.74979        5.13738       -0.27034
H          1.25597        4.80569        1.28159
H          0.41554        3.31864        1.53479
