26
6322 arginine
O         -1.22096       -0.14086       -3.46392
O         -1.47824        2.01566       -4.12029
N         -1.05055        2.83332       -1.55050
N          1.85621        1.39565        1.75985
N          3.84225        1.73638        2.90509
N          3.70737       -0.12673        1.59918
C         -0.76980        0.49290       -0.86970
C         -0.17130        0.87480        0.49210
C         -0.47944        1.54863       -1.94715
C          1.34470        1.03260        0.43730
C         -1.11575        1.20192       -3.28068
C          3.05645        0.99993        2.05030
H         -1.85465        0.36361       -0.77685
H         -0.36184       -0.47505       -1.18776
H         -0.59460        1.82110        0.84740
H         -0.41860        0.10880        1.23690
H          0.59983        1.66193       -2.09524
H          1.79439        0.09190        0.09690
H          1.58308        1.81640       -0.29186
H         -0.77576        3.55259       -2.21869
H         -0.66095        3.11834       -0.65267
H         -1.62309       -0.36067       -4.33118
H          3.50053        2.59605        3.32079
H          4.78336        1.44442        3.14475
H          4.65429       -0.33707        1.89590
H          3.27231       -0.78467        0.96233
