26
6322 arginine
O          1.69410        0.55944       -1.99217
O          1.55044        2.75320       -2.55283
N         -1.06947        1.13639       -3.21831
N          1.85621        1.39565        1.75985
N          1.17111        1.67674        3.95613
N          0.44633       -0.19583        2.87774
C         -0.76980        0.49290       -0.86970
C         -0.17130        0.87480        0.49210
C         -0.47944        1.54863       -1.94715
C          1.34470        1.03260        0.43730
C          1.00654        1.71177       -2.20918
C          1.19003        0.95941        2.78329
H         -1.85465        0.36361       -0.77685
H         -0.36184       -0.47505       -1.18776
H         -0.59460        1.82110        0.84740
H         -0.41860        0.10880        1.23690
H         -0.89038        2.52096       -1.65513
H          1.79439        0.09190        0.09690
H          1.58308        1.81640       -0.29186
H         -0.95832        1.88056       -3.90621
H         -2.07390        1.00617       -3.10303
H          2.65524        0.67195       -2.15257
H          1.67403        2.55328        4.04195
H          0.65661        1.35290        4.76778
H         -0.03632       -0.43772        3.73651
H          0.34996       -0.84237        2.10286
