26
6322 arginine
O         -0.29014        0.45854       -4.06392
O         -2.22985        1.55743       -3.64251
N         -1.05055        2.83332       -1.55050
N          1.70236        2.08283       -0.51753
N          3.83643        2.14494        0.38463
N          3.07583        4.05159       -0.60579
C         -0.76980        0.49290       -0.86970
C         -0.17130        0.87480        0.49210
C         -0.47944        1.54863       -1.94715
C          1.34470        1.03260        0.43730
C         -1.11575        1.20192       -3.28068
C          2.79069        2.74523       -0.27610
H         -1.85465        0.36361       -0.77685
H         -0.36184       -0.47505       -1.18776
H         -0.59460        1.82110        0.84740
H         -0.41860        0.10880        1.23690
H          0.59983        1.66193       -2.09524
H          1.71920        1.28008        1.43806
H          1.77971        0.07387        0.12998
H         -0.77576        3.55259       -2.21869
H         -0.66095        3.11834       -0.65267
H         -0.70114        0.24551       -4.92871
H          3.77638        1.18068        0.69319
H          4.69570        2.64549        0.58330
H          3.96825        4.46866       -0.36373
H          2.41556        4.64177       -1.09922
