26
6322 arginine
O         -4.23680        1.71877       -0.97214
O         -2.51005        2.51128        0.26796
N         -2.81204       -0.02701       -2.12621
N          1.70236        2.08283       -0.51753
N          0.74975        3.69813       -1.87964
N         -0.03819        3.54771        0.25374
C         -0.76980        0.49290       -0.86970
C         -0.17130        0.87480        0.49210
C         -2.29663        0.33541       -0.80828
C          1.34470        1.03260        0.43730
C         -2.99490        1.62787       -0.42705
C          0.84791        3.04573       -0.67331
H         -0.32590       -0.44586       -1.22172
H         -0.51159        1.26182       -1.60903
H         -0.59460        1.82110        0.84740
H         -0.41860        0.10880        1.23690
H         -2.57585       -0.43785       -0.08462
H          1.71920        1.28008        1.43806
H          1.77971        0.07387        0.12998
H         -3.81031       -0.22392       -2.06261
H         -2.37299       -0.89210       -2.43923
H         -4.68041        2.55998       -0.73182
H          1.33928        3.44057       -2.66368
H          0.08843        4.45363       -2.02185
H         -0.66489        4.30975        0.01820
H         -0.10150        3.18003        1.19636
