26
6322 arginine
O          1.32132        2.97413       -2.60293
O          1.84084        0.82163       -2.10854
N         -1.06947        1.13639       -3.21831
N          1.85621        1.39565        1.75985
N          3.99822        0.85956        1.05528
N          3.81325        2.40117        2.72380
C         -0.76980        0.49290       -0.86970
C         -0.17130        0.87480        0.49210
C         -0.47944        1.54863       -1.94715
C          1.34470        1.03260        0.43730
C          1.00654        1.71177       -2.20918
C          3.13777        1.56382        1.86406
H         -1.85465        0.36361       -0.77685
H         -0.36184       -0.47505       -1.18776
H         -0.59460        1.82110        0.84740
H         -0.41860        0.10880        1.23690
H         -0.89038        2.52096       -1.65513
H          1.79439        0.09190        0.09690
H          1.58308        1.81640       -0.29186
H         -0.95832        1.88056       -3.90621
H         -2.07390        1.00617       -3.10303
H          2.28086        3.07248       -2.78120
H          3.64932        0.20055        0.36782
H          5.00339        0.97637        1.12114
H          4.82639        2.45044        2.71668
H          3.33243        2.99646        3.38877
