26
6322 arginine
O         -0.39955        1.68439       -4.33043
O         -2.16244        0.58290       -3.42130
N         -1.05055        2.83332       -1.55050
N          1.96196       -0.22596        0.01585
N          3.62837        1.09200       -0.91048
N          3.84772       -1.16515       -1.13832
C         -0.76980        0.49290       -0.86970
C         -0.17130        0.87480        0.49210
C         -0.47944        1.54863       -1.94715
C          1.34470        1.03260        0.43730
C         -1.11575        1.20192       -3.28068
C          3.07771       -0.13829       -0.63909
H         -1.85465        0.36361       -0.77685
H         -0.36184       -0.47505       -1.18776
H         -0.59460        1.82110        0.84740
H         -0.41860        0.10880        1.23690
H          0.59983        1.66193       -2.09524
H          1.59965        1.83815       -0.26207
H          1.69782        1.31438        1.43668
H         -0.77576        3.55259       -2.21869
H         -0.66095        3.11834       -0.65267
H         -0.81964        1.46709       -5.18977
H          3.17559        1.94696       -0.60610
H          4.49974        1.18215       -1.42131
H          4.70934       -0.97623       -1.63918
H          3.58998       -2.13912       -1.02558
