26
6322 arginine
O          1.77285        0.42912       -1.80032
O          2.02967       -1.79484       -1.43205
N         -0.51699       -1.91196       -0.45424
N          1.85621        1.39565        1.75985
N          3.14544        2.99834        2.82817
N          3.96020        2.14697        0.87724
C         -0.76980        0.49290       -0.86970
C         -0.17130        0.87480        0.49210
C         -0.21110       -0.83782       -1.39583
C          1.34470        1.03260        0.43730
C          1.30058       -0.81630       -1.52904
C          2.93035        2.12145        1.79121
H         -0.56446        1.28299       -1.60171
H         -1.86124        0.42057       -0.77995
H         -0.59460        1.82110        0.84740
H         -0.41860        0.10880        1.23690
H         -0.64343       -1.07827       -2.37300
H          1.79439        0.09190        0.09690
H          1.58308        1.81640       -0.29186
H         -0.23023       -2.80710       -0.84902
H         -1.52572       -1.97259       -0.32033
H          2.74905        0.43669       -1.89589
H          2.47321        3.09319        3.58165
H          3.97857        3.57489        2.87118
H          4.75753        2.76076        1.00559
H          3.96508        1.55986        0.05080
