26
6322 arginine
O         -1.99409        2.15440       -3.69177
O         -0.89906        0.18042       -3.91950
N         -1.05055        2.83332       -1.55050
N          1.70236        2.08283       -0.51753
N          3.19665        3.74675       -1.12619
N          3.66170        2.58449        0.77845
C         -0.76980        0.49290       -0.86970
C         -0.17130        0.87480        0.49210
C         -0.47944        1.54863       -1.94715
C          1.34470        1.03260        0.43730
C         -1.11575        1.20192       -3.28068
C          2.79069        2.74523       -0.27610
H         -1.85465        0.36361       -0.77685
H         -0.36184       -0.47505       -1.18776
H         -0.59460        1.82110        0.84740
H         -0.41860        0.10880        1.23690
H          0.59983        1.66193       -2.09524
H          1.71920        1.28008        1.43806
H          1.77971        0.07387        0.12998
H         -0.77576        3.55259       -2.21869
H         -0.66095        3.11834       -0.65267
H         -2.41071        1.92151       -4.54871
H          2.65685        3.98395       -1.95139
H          4.04446        4.27630       -0.95543
H          4.48909        3.16478        0.86579
H          3.51294        1.89056        1.50237
