26
6322 arginine
O         -4.23698       -0.23355       -2.07956
O         -2.24071       -0.32202       -3.15411
N         -2.64995       -0.71204        0.14667
N          1.96196       -0.22596        0.01585
N          2.27351       -2.41492        0.71111
N          2.65807       -0.77641        2.24804
C         -0.76980        0.49290       -0.86970
C         -0.17130        0.87480        0.49210
C         -2.29663        0.33541       -0.80828
C          1.34470        1.03260        0.43730
C         -2.88600       -0.09554       -2.13881
C          2.28284       -1.06163        0.95404
H         -0.32590       -0.44586       -1.22172
H         -0.51159        1.26182       -1.60903
H         -0.59460        1.82110        0.84740
H         -0.41860        0.10880        1.23690
H         -2.76958        1.27596       -0.50617
H          1.59965        1.83815       -0.26207
H          1.69782        1.31438        1.43668
H         -3.66280       -0.74949        0.25661
H         -2.27470       -0.47834        1.06521
H         -4.61259       -0.52216       -2.93850
H          2.01729       -2.78174       -0.19906
H          2.52085       -3.08483        1.43111
H          2.88847       -1.51795        2.90070
H          2.72082        0.17353        2.59649
