26
6322 arginine
O         -2.93095       -0.16134        1.44020
O         -2.86360       -1.89871       -0.01739
N         -2.90908        1.59251       -0.38572
N          1.85621        1.39565        1.75985
N          3.99590        0.84677        1.05810
N          3.56676        0.68848        3.29094
C         -0.76980        0.49290       -0.86970
C         -0.17130        0.87480        0.49210
C         -2.29663        0.33541       -0.80828
C          1.34470        1.03260        0.43730
C         -2.72880       -0.70349        0.21020
C          3.05645        0.99993        2.05030
H         -0.32590       -0.44586       -1.22172
H         -0.51159        1.26182       -1.60903
H         -0.59460        1.82110        0.84740
H         -0.41860        0.10880        1.23690
H         -2.69463        0.04949       -1.78778
H          1.79439        0.09190        0.09690
H          1.58308        1.81640       -0.29186
H         -3.92427        1.51471       -0.43751
H         -2.64931        2.33468       -1.03444
H         -3.19999       -0.83773        2.09768
H          3.76930        1.03869        0.08834
H          4.93966        0.53822        1.26421
H          4.52915        0.38682        3.39929
H          3.00999        0.74907        4.13597
