26
6322 arginine
O         -2.22281       -1.93413       -0.06765
O         -3.46497       -0.48977        1.16462
N         -2.90908        1.59251       -0.38572
N          1.85621        1.39565        1.75985
N          1.54869        3.59430        1.09400
N          2.37586        3.25410        3.19038
C         -0.76980        0.49290       -0.86970
C         -0.17130        0.87480        0.49210
C         -2.29663        0.33541       -0.80828
C          1.34470        1.03260        0.43730
C         -2.72880       -0.70349        0.21020
C          1.93408        2.66194        2.02816
H         -0.32590       -0.44586       -1.22172
H         -0.51159        1.26182       -1.60903
H         -0.59460        1.82110        0.84740
H         -0.41860        0.10880        1.23690
H         -2.69463        0.04949       -1.78778
H          1.79439        0.09190        0.09690
H          1.58308        1.81640       -0.29186
H         -3.92427        1.51471       -0.43751
H         -2.64931        2.33468       -1.03444
H         -2.51291       -2.60456        0.58698
H          1.19937        3.31121        0.18491
H          1.60201        4.58900        1.28401
H          2.39304        4.26355        3.28859
H          2.69574        2.71306        3.98580
