26
6322 arginine
O         -2.60237        2.08120        0.79283
O         -3.83407        2.20203       -1.10872
N         -2.81204       -0.02701       -2.12621
N          1.70236        2.08283       -0.51753
N          3.25026        2.90113       -2.03621
N          3.76989        0.95015       -0.97865
C         -0.76980        0.49290       -0.86970
C         -0.17130        0.87480        0.49210
C         -2.29663        0.33541       -0.80828
C          1.34470        1.03260        0.43730
C         -2.99490        1.62787       -0.42705
C          2.84206        1.95752       -1.12327
H         -0.32590       -0.44586       -1.22172
H         -0.51159        1.26182       -1.60903
H         -0.59460        1.82110        0.84740
H         -0.41860        0.10880        1.23690
H         -2.57585       -0.43785       -0.08462
H          1.71920        1.28008        1.43806
H          1.77971        0.07387        0.12998
H         -3.81031       -0.22392       -2.06261
H         -2.37299       -0.89210       -2.43923
H         -3.06360        2.91091        1.03983
H          2.67205        3.70614       -2.25126
H          4.13754        2.82148       -2.52072
H          4.63427        0.95585       -1.50945
H          3.63034        0.17297       -0.34284
