26
6322 arginine
O         -2.81815       -1.94642       -0.33280
O         -2.99482       -0.47183        1.38242
N         -2.90908        1.59251       -0.38572
N          1.70236        2.08283       -0.51753
N          2.17099        3.50230        1.25376
N          1.55235        4.47223       -0.71380
C         -0.76980        0.49290       -0.86970
C         -0.17130        0.87480        0.49210
C         -2.29663        0.33541       -0.80828
C          1.34470        1.03260        0.43730
C         -2.72880       -0.70349        0.21020
C          1.79362        3.28934       -0.05112
H         -0.32590       -0.44586       -1.22172
H         -0.51159        1.26182       -1.60903
H         -0.59460        1.82110        0.84740
H         -0.41860        0.10880        1.23690
H         -2.69463        0.04949       -1.78778
H          1.71920        1.28008        1.43806
H          1.77971        0.07387        0.12998
H         -3.92427        1.51471       -0.43751
H         -2.64931        2.33468       -1.03444
H         -3.10770       -2.61284        0.32615
H          2.38306        2.72588        1.87086
H          2.24810        4.43770        1.63775
H          1.65645        5.36505       -0.24373
H          1.26676        4.49939       -1.68614
