26
6322 arginine
O          0.56928       -2.62042       -0.01086
O         -1.67802       -2.38190       -0.21168
N         -0.81215       -1.15207       -2.68963
N          1.85621        1.39565        1.75985
N          3.84225        1.73638        2.90509
N          3.70737       -0.12673        1.59918
C         -0.76980        0.49290       -0.86970
C         -0.17130        0.87480        0.49210
C         -0.21110       -0.83782       -1.39583
C          1.34470        1.03260        0.43730
C         -0.54597       -2.00447       -0.48469
C          3.05645        0.99993        2.05030
H         -0.56446        1.28299       -1.60171
H         -1.86124        0.42057       -0.77995
H         -0.59460        1.82110        0.84740
H         -0.41860        0.10880        1.23690
H          0.87726       -0.78281       -1.50549
H          1.79439        0.09190        0.09690
H          1.58308        1.81640       -0.29186
H         -0.37119       -1.98402       -3.08048
H         -0.62275       -0.39667       -3.34738
H          0.34843       -3.38005        0.56910
H          3.50053        2.59605        3.32079
H          4.78336        1.44442        3.14475
H          4.65429       -0.33707        1.89590
H          3.27231       -0.78467        0.96233
