26
6322 arginine
O          0.56928       -2.62042       -0.01086
O         -1.67802       -2.38190       -0.21168
N         -0.81215       -1.15207       -2.68963
N          1.85621        1.39565        1.75985
N          3.77825        1.29886        3.05152
N          4.01478        1.99842        0.89526
C         -0.76980        0.49290       -0.86970
C         -0.17130        0.87480        0.49210
C         -0.21110       -0.83782       -1.39583
C          1.34470        1.03260        0.43730
C         -0.54597       -2.00447       -0.48469
C          3.13777        1.56382        1.86406
H         -0.56446        1.28299       -1.60171
H         -1.86124        0.42057       -0.77995
H         -0.59460        1.82110        0.84740
H         -0.41860        0.10880        1.23690
H          0.87726       -0.78281       -1.50549
H          1.79439        0.09190        0.09690
H          1.58308        1.81640       -0.29186
H         -0.37119       -1.98402       -3.08048
H         -0.62275       -0.39667       -3.34738
H          0.34843       -3.38005        0.56910
H          3.26429        0.96982        3.86158
H          4.77936        1.42410        3.15372
H          5.00540        2.09309        1.09184
H          3.71116        2.23635       -0.04225
