26
6322 arginine
O         -2.11534        2.64394       -0.22294
O         -4.20403        1.76048       -0.28937
N         -2.81204       -0.02701       -2.12621
N          1.85621        1.39565        1.75985
N          2.78112        0.45925        3.66765
N          3.61428       -0.23845        1.66420
C         -0.76980        0.49290       -0.86970
C         -0.17130        0.87480        0.49210
C         -2.29663        0.33541       -0.80828
C          1.34470        1.03260        0.43730
C         -2.99490        1.62787       -0.42705
C          2.70819        0.58087        2.30003
H         -0.32590       -0.44586       -1.22172
H         -0.51159        1.26182       -1.60903
H         -0.59460        1.82110        0.84740
H         -0.41860        0.10880        1.23690
H         -2.57585       -0.43785       -0.08462
H          1.79439        0.09190        0.09690
H          1.58308        1.81640       -0.29186
H         -3.81031       -0.22392       -2.06261
H         -2.37299       -0.89210       -2.43923
H         -2.56992        3.47452        0.03331
H          2.17492        1.00041        4.27451
H          3.44041       -0.17187        4.10968
H          4.23708       -0.83889        2.19385
H          3.69379       -0.27652        0.65426
