26
6322 arginine
O          1.69410        0.55944       -1.99217
O          1.55044        2.75320       -2.55283
N         -1.06947        1.13639       -3.21831
N          1.96196       -0.22596        0.01585
N          3.87801       -1.06152       -0.98545
N          4.16228        0.49723        0.65292
C         -0.76980        0.49290       -0.86970
C         -0.17130        0.87480        0.49210
C         -0.47944        1.54863       -1.94715
C          1.34470        1.03260        0.43730
C          1.00654        1.71177       -2.20918
C          3.25539       -0.23981       -0.07571
H         -1.85465        0.36361       -0.77685
H         -0.36184       -0.47505       -1.18776
H         -0.59460        1.82110        0.84740
H         -0.41860        0.10880        1.23690
H         -0.89038        2.52096       -1.65513
H          1.59965        1.83815       -0.26207
H          1.69782        1.31438        1.43668
H         -0.95832        1.88056       -3.90621
H         -2.07390        1.00617       -3.10303
H          2.65524        0.67195       -2.15257
H          3.34149       -1.66740       -1.59673
H          4.88801       -1.08738       -1.07258
H          5.15971        0.40309        0.49416
H          3.87445        1.15695        1.36683
