26
6322 arginine
O         -1.80460        0.03118       -3.23016
O         -1.01581        1.86834       -4.30265
N         -1.05055        2.83332       -1.55050
N          1.85621        1.39565        1.75985
N          2.46605        3.23964        3.02469
N          3.23526        3.15516        0.88087
C         -0.76980        0.49290       -0.86970
C         -0.17130        0.87480        0.49210
C         -0.47944        1.54863       -1.94715
C          1.34470        1.03260        0.43730
C         -1.11575        1.20192       -3.28068
C          2.48977        2.52338        1.85127
H         -1.85465        0.36361       -0.77685
H         -0.36184       -0.47505       -1.18776
H         -0.59460        1.82110        0.84740
H         -0.41860        0.10880        1.23690
H          0.59983        1.66193       -2.09524
H          1.79439        0.09190        0.09690
H          1.58308        1.81640       -0.29186
H         -0.77576        3.55259       -2.21869
H         -0.66095        3.11834       -0.65267
H         -2.20546       -0.19434       -4.09654
H          1.95646        2.90204        3.83398
H          2.95458        4.12353        3.11661
H          3.68999        4.04267        1.06658
H          3.36053        2.76372       -0.04586
