26
6322 arginine
O          1.89569       -1.76694       -0.76104
O          1.93505       -0.03053       -2.22081
N         -0.51699       -1.91196       -0.45424
N          1.85621        1.39565        1.75985
N          1.49323        1.00614        4.01563
N          1.49857       -0.81080        2.63959
C         -0.76980        0.49290       -0.86970
C         -0.17130        0.87480        0.49210
C         -0.21110       -0.83782       -1.39583
C          1.34470        1.03260        0.43730
C          1.30058       -0.81630       -1.52904
C          1.63060        0.55747        2.72322
H         -0.56446        1.28299       -1.60171
H         -1.86124        0.42057       -0.77995
H         -0.59460        1.82110        0.84740
H         -0.41860        0.10880        1.23690
H         -0.64343       -1.07827       -2.37300
H          1.79439        0.09190        0.09690
H          1.58308        1.81640       -0.29186
H         -0.23023       -2.80710       -0.84902
H         -1.52572       -1.97259       -0.32033
H          2.87295       -1.74279       -0.84207
H          1.56547        1.99309        4.23772
H          1.31678        0.36716        4.78305
H          1.32198       -1.37018        3.46714
H          1.56924       -1.30857        1.75927
