26
6322 arginine
O         -2.38932       -1.29019       -2.55575
O         -3.69635        0.54929       -2.79154
N         -2.64995       -0.71204        0.14667
N          1.96196       -0.22596        0.01585
N          3.54524        0.01568        1.69121
N          4.15224       -1.20018       -0.13854
C         -0.76980        0.49290       -0.86970
C         -0.17130        0.87480        0.49210
C         -2.29663        0.33541       -0.80828
C          1.34470        1.03260        0.43730
C         -2.88600       -0.09554       -2.13881
C          3.15245       -0.47209        0.46717
H         -0.32590       -0.44586       -1.22172
H         -0.51159        1.26182       -1.60903
H         -0.59460        1.82110        0.84740
H         -0.41860        0.10880        1.23690
H         -2.76958        1.27596       -0.50617
H          1.59965        1.83815       -0.26207
H          1.69782        1.31438        1.43668
H         -3.66280       -0.74949        0.25661
H         -2.27470       -0.47834        1.06521
H         -2.76496       -1.55997       -3.42078
H          2.91624        0.57279        2.25920
H          4.47164       -0.16525        2.06190
H          5.05198       -1.32781        0.31214
H          4.03132       -1.63464       -1.04649
