26
6322 arginine
O         -0.07918        3.64840       -0.88152
O         -2.12589        3.33995       -1.81073
N          0.96339        1.70035       -2.11789
N          1.96196       -0.22596        0.01585
N          3.83985       -1.53599        0.37553
N          2.79393       -0.69839        2.21923
C         -0.76980        0.49290       -0.86970
C         -0.17130        0.87480        0.49210
C         -0.47944        1.54863       -1.94715
C          1.34470        1.03260        0.43730
C         -1.00203        2.92137       -1.56525
C          2.79647       -0.77290        0.84408
H         -1.85465        0.36361       -0.77685
H         -0.36184       -0.47505       -1.18776
H         -0.59460        1.82110        0.84740
H         -0.41860        0.10880        1.23690
H         -0.92902        1.25830       -2.90275
H          1.59965        1.83815       -0.26207
H          1.69782        1.31438        1.43668
H          1.15297        2.32945       -2.89740
H          1.37396        0.80288       -2.37306
H         -0.42449        4.53072       -0.62764
H          3.97493       -1.68426       -0.61865
H          4.50306       -1.97239        1.00645
H          3.50278       -1.17146        2.76939
H          2.09439       -0.17307        2.73151
