26
6322 arginine
O         -0.04000       -1.83881        0.76601
O         -1.17515       -3.00010       -0.81842
N         -0.81215       -1.15207       -2.68963
N          1.96196       -0.22596        0.01585
N          1.56161       -1.10211        2.12394
N          3.30987       -1.97913        0.95382
C         -0.76980        0.49290       -0.86970
C         -0.17130        0.87480        0.49210
C         -0.21110       -0.83782       -1.39583
C          1.34470        1.03260        0.43730
C         -0.54597       -2.00447       -0.48469
C          2.28284       -1.06163        0.95404
H         -0.56446        1.28299       -1.60171
H         -1.86124        0.42057       -0.77995
H         -0.59460        1.82110        0.84740
H         -0.41860        0.10880        1.23690
H          0.87726       -0.78281       -1.50549
H          1.59965        1.83815       -0.26207
H          1.69782        1.31438        1.43668
H         -0.37119       -1.98402       -3.08048
H         -0.62275       -0.39667       -3.34738
H         -0.24978       -2.59961        1.34854
H          0.77169       -0.48387        2.27372
H          1.79634       -1.74789        2.86975
H          3.46810       -2.58639        1.75078
H          3.94028       -2.08567        0.16708
