26
6322 arginine
O         -4.15539        1.40392        0.24438
O         -2.59399        2.75166       -0.70072
N         -2.81204       -0.02701       -2.12621
N          1.96196       -0.22596        0.01585
N          3.87801       -1.06152       -0.98545
N          4.16228        0.49723        0.65292
C         -0.76980        0.49290       -0.86970
C         -0.17130        0.87480        0.49210
C         -2.29663        0.33541       -0.80828
C          1.34470        1.03260        0.43730
C         -2.99490        1.62787       -0.42705
C          3.25539       -0.23981       -0.07571
H         -0.32590       -0.44586       -1.22172
H         -0.51159        1.26182       -1.60903
H         -0.59460        1.82110        0.84740
H         -0.41860        0.10880        1.23690
H         -2.57585       -0.43785       -0.08462
H          1.59965        1.83815       -0.26207
H          1.69782        1.31438        1.43668
H         -3.81031       -0.22392       -2.06261
H         -2.37299       -0.89210       -2.43923
H         -4.60859        2.24142        0.47972
H          3.34149       -1.66740       -1.59673
H          4.88801       -1.08738       -1.07258
H          5.15971        0.40309        0.49416
H          3.87445        1.15695        1.36683
