26
6322 arginine
O         -2.30543        2.72364       -0.84133
O         -4.04346        1.70282        0.20021
N         -2.81204       -0.02701       -2.12621
N          1.96196       -0.22596        0.01585
N          3.41739       -1.95695        0.52319
N          3.18094       -0.31284        2.08389
C         -0.76980        0.49290       -0.86970
C         -0.17130        0.87480        0.49210
C         -2.29663        0.33541       -0.80828
C          1.34470        1.03260        0.43730
C         -2.99490        1.62787       -0.42705
C          2.79647       -0.77290        0.84408
H         -0.32590       -0.44586       -1.22172
H         -0.51159        1.26182       -1.60903
H         -0.59460        1.82110        0.84740
H         -0.41860        0.10880        1.23690
H         -2.57585       -0.43785       -0.08462
H          1.59965        1.83815       -0.26207
H          1.69782        1.31438        1.43668
H         -3.81031       -0.22392       -2.06261
H         -2.37299       -0.89210       -2.43923
H         -2.75478        3.55670       -0.58390
H          3.23550       -2.42096       -0.36012
H          4.07285       -2.40096        1.15690
H          3.84660       -0.82879        2.64924
H          2.82123        0.54981        2.47655
