26
6322 arginine
O         -0.00870        3.84685       -1.49839
O         -2.17148        3.18549       -1.31792
N          0.96339        1.70035       -2.11789
N          1.85621        1.39565        1.75985
N          1.79305        3.10736        3.32129
N          2.15242        3.70014        1.15007
C         -0.76980        0.49290       -0.86970
C         -0.17130        0.87480        0.49210
C         -0.47944        1.54863       -1.94715
C          1.34470        1.03260        0.43730
C         -1.00203        2.92137       -1.56525
C          1.93408        2.66194        2.02816
H         -1.85465        0.36361       -0.77685
H         -0.36184       -0.47505       -1.18776
H         -0.59460        1.82110        0.84740
H         -0.41860        0.10880        1.23690
H         -0.92902        1.25830       -2.90275
H          1.79439        0.09190        0.09690
H          1.58308        1.81640       -0.29186
H          1.15297        2.32945       -2.89740
H          1.37396        0.80288       -2.37306
H         -0.34918        4.73008       -1.24121
H          1.62658        2.45896        4.08319
H          1.85036        4.09318        3.55201
H          2.19391        4.65990        1.47577
H          2.28113        3.55007        0.15576
