26
6322 arginine
O          1.89569       -1.76694       -0.76104
O          1.93505       -0.03053       -2.22081
N         -0.51699       -1.91196       -0.45424
N          1.85621        1.39565        1.75985
N          3.47324        2.50603        2.99448
N          3.65995        2.59792        0.72480
C         -0.76980        0.49290       -0.86970
C         -0.17130        0.87480        0.49210
C         -0.21110       -0.83782       -1.39583
C          1.34470        1.03260        0.43730
C          1.30058       -0.81630       -1.52904
C          2.93035        2.12145        1.79121
H         -0.56446        1.28299       -1.60171
H         -1.86124        0.42057       -0.77995
H         -0.59460        1.82110        0.84740
H         -0.41860        0.10880        1.23690
H         -0.64343       -1.07827       -2.37300
H          1.79439        0.09190        0.09690
H          1.58308        1.81640       -0.29186
H         -0.23023       -2.80710       -0.84902
H         -1.52572       -1.97259       -0.32033
H          2.87295       -1.74279       -0.84207
H          3.04691        2.23157        3.87285
H          4.31233        3.07362        3.04064
H          4.49071        3.16148        0.87029
H          3.40175        2.40598       -0.23657
