26
6322 arginine
O         -2.26117        0.48559       -3.13044
O         -0.65922        1.49937       -4.37687
N         -1.05055        2.83332       -1.55050
N          1.96196       -0.22596        0.01585
N          3.73304       -1.04809       -1.23290
N          2.49566        0.62247       -2.16718
C         -0.76980        0.49290       -0.86970
C         -0.17130        0.87480        0.49210
C         -0.47944        1.54863       -1.94715
C          1.34470        1.03260        0.43730
C         -1.11575        1.20192       -3.28068
C          2.66703       -0.19474       -1.07201
H         -1.85465        0.36361       -0.77685
H         -0.36184       -0.47505       -1.18776
H         -0.59460        1.82110        0.84740
H         -0.41860        0.10880        1.23690
H          0.59983        1.66193       -2.09524
H          1.59965        1.83815       -0.26207
H          1.69782        1.31438        1.43668
H         -0.77576        3.55259       -2.21869
H         -0.66095        3.11834       -0.65267
H         -2.66353        0.25475       -3.99472
H          3.98583       -1.71234       -0.50938
H          4.29701       -1.03940       -2.07565
H          3.11376        0.55810       -2.96890
H          1.75353        1.31126       -2.21770
