26
6322 arginine
O         -0.19239        1.06937       -4.26938
O         -2.31764        1.07466       -3.47510
N         -1.05055        2.83332       -1.55050
N          1.70236        2.08283       -0.51753
N          1.53160        4.31224       -1.12789
N          0.44363        3.67279        0.77005
C         -0.76980        0.49290       -0.86970
C         -0.17130        0.87480        0.49210
C         -0.47944        1.54863       -1.94715
C          1.34470        1.03260        0.43730
C         -1.11575        1.20192       -3.28068
C          1.23967        3.27055       -0.27929
H         -1.85465        0.36361       -0.77685
H         -0.36184       -0.47505       -1.18776
H         -0.59460        1.82110        0.84740
H         -0.41860        0.10880        1.23690
H          0.59983        1.66193       -2.09524
H          1.71920        1.28008        1.43806
H          1.77971        0.07387        0.12998
H         -0.77576        3.55259       -2.21869
H         -0.66095        3.11834       -0.65267
H         -0.60860        0.85559       -5.13148
H          2.10983        4.17218       -1.94926
H          1.17989        5.24832       -0.95930
H          0.13965        4.63675        0.85560
H          0.13097        3.03052        1.48941
