26
6322 arginine
O          0.56928       -2.62042       -0.01086
O         -1.67802       -2.38190       -0.21168
N         -0.81215       -1.15207       -2.68963
N          1.96196       -0.22596        0.01585
N          3.28090       -1.33494       -1.53418
N          2.90980        0.88532       -1.89123
C         -0.76980        0.49290       -0.86970
C         -0.17130        0.87480        0.49210
C         -0.21110       -0.83782       -1.39583
C          1.34470        1.03260        0.43730
C         -0.54597       -2.00447       -0.48469
C          2.66703       -0.19474       -1.07201
H         -0.56446        1.28299       -1.60171
H         -1.86124        0.42057       -0.77995
H         -0.59460        1.82110        0.84740
H         -0.41860        0.10880        1.23690
H          0.87726       -0.78281       -1.50549
H          1.59965        1.83815       -0.26207
H          1.69782        1.31438        1.43668
H         -0.37119       -1.98402       -3.08048
H         -0.62275       -0.39667       -3.34738
H          0.34843       -3.38005        0.56910
H          3.19453       -2.21450       -1.03665
H          3.83666       -1.33159       -2.38239
H          3.48180        0.79152       -2.72367
H          2.53031        1.80575       -1.70006
