26
6322 arginine
O         -2.60237        2.08120        0.79283
O         -3.83407        2.20203       -1.10872
N         -2.81204       -0.02701       -2.12621
N          1.96196       -0.22596        0.01585
N          1.25858        0.18203       -2.15459
N          1.55993       -1.99665       -1.55682
C         -0.76980        0.49290       -0.86970
C         -0.17130        0.87480        0.49210
C         -2.29663        0.33541       -0.80828
C          1.34470        1.03260        0.43730
C         -2.99490        1.62787       -0.42705
C          1.61975       -0.68276       -1.14852
H         -0.32590       -0.44586       -1.22172
H         -0.51159        1.26182       -1.60903
H         -0.59460        1.82110        0.84740
H         -0.41860        0.10880        1.23690
H         -2.57585       -0.43785       -0.08462
H          1.59965        1.83815       -0.26207
H          1.69782        1.31438        1.43668
H         -3.81031       -0.22392       -2.06261
H         -2.37299       -0.89210       -2.43923
H         -3.06360        2.91091        1.03983
H          1.25294        1.18525       -2.00580
H          0.98754       -0.15489       -3.07186
H          1.27566       -2.23818       -2.50011
H          1.79639       -2.76619       -0.94069
