26
6322 arginine
O         -3.54153       -1.28285       -2.04775
O         -2.77774        0.52267       -3.18982
N         -2.64995       -0.71204        0.14667
N          1.85621        1.39565        1.75985
N          1.84269        2.91038        3.51411
N          0.51086        3.38542        1.72656
C         -0.76980        0.49290       -0.86970
C         -0.17130        0.87480        0.49210
C         -2.29663        0.33541       -0.80828
C          1.34470        1.03260        0.43730
C         -2.88600       -0.09554       -2.13881
C          1.41219        2.49998        2.27446
H         -0.32590       -0.44586       -1.22172
H         -0.51159        1.26182       -1.60903
H         -0.59460        1.82110        0.84740
H         -0.41860        0.10880        1.23690
H         -2.76958        1.27596       -0.50617
H          1.79439        0.09190        0.09690
H          1.58308        1.81640       -0.29186
H         -3.66280       -0.74949        0.25661
H         -2.27470       -0.47834        1.06521
H         -3.91188       -1.56272       -2.91185
H          2.51002        2.36125        4.04490
H          1.50755        3.77038        3.93415
H          0.23398        4.22448        2.22482
H          0.09413        3.23846        0.81416
