26
6322 arginine
O         -0.04000       -1.83881        0.76601
O         -1.17515       -3.00010       -0.81842
N         -0.81215       -1.15207       -2.68963
N          1.96196       -0.22596        0.01585
N          2.27351       -2.41492        0.71111
N          2.65807       -0.77641        2.24804
C         -0.76980        0.49290       -0.86970
C         -0.17130        0.87480        0.49210
C         -0.21110       -0.83782       -1.39583
C          1.34470        1.03260        0.43730
C         -0.54597       -2.00447       -0.48469
C          2.28284       -1.06163        0.95404
H         -0.56446        1.28299       -1.60171
H         -1.86124        0.42057       -0.77995
H         -0.59460        1.82110        0.84740
H         -0.41860        0.10880        1.23690
H          0.87726       -0.78281       -1.50549
H          1.59965        1.83815       -0.26207
H          1.69782        1.31438        1.43668
H         -0.37119       -1.98402       -3.08048
H         -0.62275       -0.39667       -3.34738
H         -0.24978       -2.59961        1.34854
H          2.01729       -2.78174       -0.19906
H          2.52085       -3.08483        1.43111
H          2.88847       -1.51795        2.90070
H          2.72082        0.17353        2.59649
