17
6288 threonine
O         -2.31257        0.96566        0.91984
O          2.37713       -0.08851        0.42470
O          0.89705       -1.10532       -0.95920
N          0.40530        1.86690        0.57430
C         -1.35440        0.18800        0.20430
C          0.06640        0.44880        0.72850
C         -1.77082       -1.27394        0.30766
C          1.12160       -0.33980       -0.03000
H          0.14530        0.16990        1.78570
H         -1.41839        0.49368       -0.84723
H         -1.11587       -1.93456       -0.26763
H         -2.79171       -1.39882       -0.07145
H         -1.79110       -1.61413        1.34859
H          1.30760        2.05150        1.01150
H         -0.27450        2.43570        1.07770
H         -2.04652        1.89789        0.84438
H          3.05422       -0.59386       -0.07367
17
6288 threonine
O         -2.31257        0.96566        0.91984
O          1.83218       -1.16347        0.78419
O          1.34066       -0.24977       -1.23157
N          0.40530        1.86690        0.57430
C         -1.35440        0.18800        0.20430
C          0.06640        0.44880        0.72850
C         -1.77082       -1.27394        0.30766
C          1.12160       -0.33980       -0.03000
H          0.14530        0.16990        1.78570
H         -1.41839        0.49368       -0.84723
H         -1.11587       -1.93456       -0.26763
H         -2.79171       -1.39882       -0.07145
H         -1.79110       -1.61413        1.34859
H          1.30760        2.05150        1.01150
H         -0.27450        2.43570        1.07770
H         -2.04652        1.89789        0.84438
H          2.51669       -1.66356        0.29069
17
6288 threonine
O         -2.31257        0.96566        0.91984
O          1.12505       -0.04976       -1.35745
O          1.88122       -1.16124        0.46808
N          0.40530        1.86690        0.57430
C         -1.35440        0.18800        0.20430
C          0.06640        0.44880        0.72850
C         -1.77082       -1.27394        0.30766
C          1.12160       -0.33980       -0.03000
H          0.14530        0.16990        1.78570
H         -1.41839        0.49368       -0.84723
H         -1.11587       -1.93456       -0.26763
H         -2.79171       -1.39882       -0.07145
H         -1.79110       -1.61413        1.34859
H          1.30760        2.05150        1.01150
H         -0.27450        2.43570        1.07770
H         -2.04652        1.89789        0.84438
H          1.80230       -0.56738       -1.84282
17
6288 threonine
O         -1.45782        0.52538       -1.17784
O          2.37713       -0.08851        0.42470
O          0.89705       -1.10532       -0.95920
N          0.40530        1.86690        0.57430
C         -1.35440        0.18800        0.20430
C          0.06640        0.44880        0.72850
C         -2.42242        0.97255        0.95609
C          1.12160       -0.33980       -0.03000
H          0.14530        0.16990        1.78570
H         -1.58512       -0.88107        0.28864
H         -2.44833        0.72439        2.02102
H         -3.41092        0.75442        0.53560
H         -2.27939        2.05304        0.84758
H          1.30760        2.05150        1.01150
H         -0.27450        2.43570        1.07770
H         -0.77949        0.01659       -1.65380
H          3.05422       -0.59386       -0.07367
17
6288 threonine
O         -2.31257        0.96566        0.91984
O          2.02357        0.46835       -0.64612
O          1.16733       -1.56106       -0.10938
N          0.40530        1.86690        0.57430
C         -1.35440        0.18800        0.20430
C          0.06640        0.44880        0.72850
C         -1.77082       -1.27394        0.30766
C          1.12160       -0.33980       -0.03000
H          0.14530        0.16990        1.78570
H         -1.41839        0.49368       -0.84723
H         -1.11587       -1.93456       -0.26763
H         -2.79171       -1.39882       -0.07145
H         -1.79110       -1.61413        1.34859
H          1.30760        2.05150        1.01150
H         -0.27450        2.43570        1.07770
H         -2.04652        1.89789        0.84438
H          2.69702       -0.04577       -1.14043
17
6288 threonine
O         -1.45782        0.52538       -1.17784
O          0.64522       -1.52637       -0.48976
O          2.27922        0.01929       -0.20560
N          0.40530        1.86690        0.57430
C         -1.35440        0.18800        0.20430
C          0.06640        0.44880        0.72850
C         -2.42242        0.97255        0.95609
C          1.12160       -0.33980       -0.03000
H          0.14530        0.16990        1.78570
H         -1.58512       -0.88107        0.28864
H         -2.44833        0.72439        2.02102
H         -3.41092        0.75442        0.53560
H         -2.27939        2.05304        0.84758
H          1.30760        2.05150        1.01150
H         -0.27450        2.43570        1.07770
H         -0.77949        0.01659       -1.65380
H          1.33259       -2.03422       -0.97122
17
6288 threonine
O         -2.31257        0.96566        0.91984
O          0.93366       -1.68158        0.07287
O          2.05455        0.15005       -0.65412
N          0.40530        1.86690        0.57430
C         -1.35440        0.18800        0.20430
C          0.06640        0.44880        0.72850
C         -1.77082       -1.27394        0.30766
C          1.12160       -0.33980       -0.03000
H          0.14530        0.16990        1.78570
H         -1.41839        0.49368       -0.84723
H         -1.11587       -1.93456       -0.26763
H         -2.79171       -1.39882       -0.07145
H         -1.79110       -1.61413        1.34859
H          1.30760        2.05150        1.01150
H         -0.27450        2.43570        1.07770
H         -2.04652        1.89789        0.84438
H          1.62197       -2.18517       -0.41170
17
6288 threonine
O         -1.45782        0.52538       -1.17784
O          0.75572       -0.58424       -1.31555
O          2.17915       -0.73779        0.44230
N          0.40530        1.86690        0.57430
C         -1.35440        0.18800        0.20430
C          0.06640        0.44880        0.72850
C         -2.42242        0.97255        0.95609
C          1.12160       -0.33980       -0.03000
H          0.14530        0.16990        1.78570
H         -1.58512       -0.88107        0.28864
H         -2.44833        0.72439        2.02102
H         -3.41092        0.75442        0.53560
H         -2.27939        2.05304        0.84758
H          1.30760        2.05150        1.01150
H         -0.27450        2.43570        1.07770
H         -0.77949        0.01659       -1.65380
H          1.43671       -1.10019       -1.79748
17
6288 threonine
O         -2.31257        0.96566        0.91984
O          0.58009       -1.12472       -0.99796
O          2.32483       -0.30569        0.19571
N          0.40530        1.86690        0.57430
C         -1.35440        0.18800        0.20430
C          0.06640        0.44880        0.72850
C         -1.77082       -1.27394        0.30766
C          1.12160       -0.33980       -0.03000
H          0.14530        0.16990        1.78570
H         -1.41839        0.49368       -0.84723
H         -1.11587       -1.93456       -0.26763
H         -2.79171       -1.39882       -0.07145
H         -1.79110       -1.61413        1.34859
H          1.30760        2.05150        1.01150
H         -0.27450        2.43570        1.07770
H         -2.04652        1.89789        0.84438
H          1.26478       -1.63708       -1.47845
17
6288 threonine
O         -1.70695       -1.18661        0.34916
O          0.93366       -1.68158        0.07287
O          2.05455        0.15005       -0.65412
N          0.40530        1.86690        0.57430
C         -1.35440        0.18800        0.20430
C          0.06640        0.44880        0.72850
C         -1.52827        0.56100       -1.26267
C          1.12160       -0.33980       -0.03000
H          0.14530        0.16990        1.78570
H         -2.07482        0.76505        0.79696
H         -1.33298        1.62108       -1.44818
H         -2.55443        0.34680       -1.58304
H         -0.87826       -0.03746       -1.90999
H          1.30760        2.05150        1.01150
H         -0.27450        2.43570        1.07770
H         -1.60160       -1.41737        1.28787
H          1.62197       -2.18517       -0.41170
17
6288 threonine
O         -1.70695       -1.18661        0.34916
O          1.83218       -1.16347        0.78419
O          1.34066       -0.24977       -1.23157
N          0.40530        1.86690        0.57430
C         -1.35440        0.18800        0.20430
C          0.06640        0.44880        0.72850
C         -1.52827        0.56100       -1.26267
C          1.12160       -0.33980       -0.03000
H          0.14530        0.16990        1.78570
H         -2.07482        0.76505        0.79696
H         -1.33298        1.62108       -1.44818
H         -2.55443        0.34680       -1.58304
H         -0.87826       -0.03746       -1.90999
H          1.30760        2.05150        1.01150
H         -0.27450        2.43570        1.07770
H         -1.60160       -1.41737        1.28787
H          2.51669       -1.66356        0.29069
17
6288 threonine
O         -1.70695       -1.18661        0.34916
O          2.37713       -0.08851        0.42470
O          0.89705       -1.10532       -0.95920
N          0.40530        1.86690        0.57430
C         -1.35440        0.18800        0.20430
C          0.06640        0.44880        0.72850
C         -1.52827        0.56100       -1.26267
C          1.12160       -0.33980       -0.03000
H          0.14530        0.16990        1.78570
H         -2.07482        0.76505        0.79696
H         -1.33298        1.62108       -1.44818
H         -2.55443        0.34680       -1.58304
H         -0.87826       -0.03746       -1.90999
H          1.30760        2.05150        1.01150
H         -0.27450        2.43570        1.07770
H         -1.60160       -1.41737        1.28787
H          3.05422       -0.59386       -0.07367
17
6288 threonine
O         -1.45782        0.52538       -1.17784
O          2.02357        0.46835       -0.64612
O          1.16733       -1.56106       -0.10938
N          0.40530        1.86690        0.57430
C         -1.35440        0.18800        0.20430
C          0.06640        0.44880        0.72850
C         -2.42242        0.97255        0.95609
C          1.12160       -0.33980       -0.03000
H          0.14530        0.16990        1.78570
H         -1.58512       -0.88107        0.28864
H         -2.44833        0.72439        2.02102
H         -3.41092        0.75442        0.53560
H         -2.27939        2.05304        0.84758
H          1.30760        2.05150        1.01150
H         -0.27450        2.43570        1.07770
H         -0.77949        0.01659       -1.65380
H          2.69702       -0.04577       -1.14043
17
6288 threonine
O         -1.70695       -1.18661        0.34916
O          2.02357        0.46835       -0.64612
O          1.16733       -1.56106       -0.10938
N          0.40530        1.86690        0.57430
C         -1.35440        0.18800        0.20430
C          0.06640        0.44880        0.72850
C         -1.52827        0.56100       -1.26267
C          1.12160       -0.33980       -0.03000
H          0.14530        0.16990        1.78570
H         -2.07482        0.76505        0.79696
H         -1.33298        1.62108       -1.44818
H         -2.55443        0.34680       -1.58304
H         -0.87826       -0.03746       -1.90999
H          1.30760        2.05150        1.01150
H         -0.27450        2.43570        1.07770
H         -1.60160       -1.41737        1.28787
H          2.69702       -0.04577       -1.14043
17
6288 threonine
O         -1.70695       -1.18661        0.34916
O          1.12505       -0.04976       -1.35745
O          1.88122       -1.16124        0.46808
N          0.40530        1.86690        0.57430
C         -1.35440        0.18800        0.20430
C          0.06640        0.44880        0.72850
C         -1.52827        0.56100       -1.26267
C          1.12160       -0.33980       -0.03000
H          0.14530        0.16990        1.78570
H         -2.07482        0.76505        0.79696
H         -1.33298        1.62108       -1.44818
H         -2.55443        0.34680       -1.58304
H         -0.87826       -0.03746       -1.90999
H          1.30760        2.05150        1.01150
H         -0.27450        2.43570        1.07770
H         -1.60160       -1.41737        1.28787
H          1.80230       -0.56738       -1.84282
