17
6288 threonine
O         -1.45782        0.52538       -1.17784
O          0.75572       -0.58424       -1.31555
O          2.17915       -0.73779        0.44230
N          0.40530        1.86690        0.57430
C         -1.35440        0.18800        0.20430
C          0.06640        0.44880        0.72850
C         -2.42242        0.97255        0.95609
C          1.12160       -0.33980       -0.03000
H          0.14530        0.16990        1.78570
H         -1.58512       -0.88107        0.28864
H         -2.44833        0.72439        2.02102
H         -3.41092        0.75442        0.53560
H         -2.27939        2.05304        0.84758
H          1.30760        2.05150        1.01150
H         -0.27450        2.43570        1.07770
H         -0.77949        0.01659       -1.65380
H          1.43671       -1.10019       -1.79748
